                                   MODFLOW 6
                U.S. GEOLOGICAL SURVEY MODULAR HYDROLOGIC MODEL
                          GROUNDWATER FLOW MODEL (GWF)
                            VERSION 6.3.0 03/04/2022

   MODFLOW 6 compiled Mar 02 2022 15:29:04 with Intel(R) Fortran Intel(R) 64
   Compiler Classic for applications running on Intel(R) 64, Version 2021.5.0
                             Build 20211109_000000

This software has been approved for release by the U.S. Geological 
Survey (USGS). Although the software has been subjected to rigorous 
review, the USGS reserves the right to update the software as needed 
pursuant to further analysis and review. No warranty, expressed or 
implied, is made by the USGS or the U.S. Government as to the 
functionality of the software and related material nor shall the 
fact of release constitute any such warranty. Furthermore, the 
software is released on condition that neither the USGS nor the U.S. 
Government shall be held liable for any damages resulting from its 
authorized or unauthorized use. Also refer to the USGS Water 
Resources Software User Rights Notice for complete use, copyright, 
and distribution information.


As a work of the United States Government, this USGS product is 
in the public domain within the United States. You can copy, 
modify, distribute, and perform the work, even for commercial 
purposes, all without asking permission. Additionally, USGS 
waives copyright and related rights in the work worldwide 
through CC0 1.0 Universal Public Domain Dedication 
(https://creativecommons.org/publicdomain/zero/1.0/).

The following GNU Lesser General Public License (LGPL) libraries
are used in this USGS product:

    SPARSKIT version 2.0
      ilut, luson, and qsplit 
      (https://www-users.cse.umn.edu/~saad/software/SPARSKIT/)

    RCM - Reverse Cuthill McKee Ordering
      (https://people.math.sc.edu/Burkardt/f_src/rcm/rcm.html)

    BLAS - Basic Linear Algebra Subprograms Level 1
      (https://people.math.sc.edu/Burkardt/f_src/blas1_d/blas1_d.html)

    SPARSEKIT - Sparse Matrix Utility Package
      amux, dperm, dvperm, rperm, and cperm
      (https://people.sc.fsu.edu/~jburkardt/f77_src/sparsekit/sparsekit.html)

The following BSD-3 License libraries are used in this USGS product:

    Modern Fortran DAG Library
      Copyright (c) 2018, Jacob Williams
      All rights reserved.
      (https://github.com/jacobwilliams/daglib)

MODFLOW 6 compiler options: /Isrc\libmf6core.a.p /Isrc /I..\src
/Isrc\libmf6_external.a.p /MTd /nologo /warn:general /warn:truncated_source
/stand:f08 /Zi /traceback /O2 /Zi /fpe:0 /fpp /Qdiag-disable:7416
/Qdiag-disable:7025 /Qdiag-disable:5268
/Fdsrc\libmf6core.a.p\Utilities_compilerversion.F90.pdb
/module:src\libmf6core.a.p
/Fosrc/libmf6core.a.p/Utilities_compilerversion.F90.obj /c

System command used to initiate simulation:
./bin/mf6

MODFLOW was compiled using uniform precision.

Real Variables
  KIND: 8
  TINY (smallest non-zero value):    2.225074-308
  HUGE (largest value):    1.797693+308
  PRECISION: 15
  BIT SIZE: 64

Integer Variables
  KIND: 4
  HUGE (largest value): 2147483647
  BIT SIZE: 32

Long Integer Variables
  KIND: 8
  HUGE (largest value): 9223372036854775807
  BIT SIZE: 64

Logical Variables
  KIND: 4
  BIT SIZE: 32
 

 OPENED RL.dis
 FILE TYPE:DIS6                   UNIT 1005   STATUS:OLD                 
 FORMAT:FORMATTED              ACCESS:SEQUENTIAL          
 ACTION:READ                


 OPENED RL.ic
 FILE TYPE:IC6                    UNIT 1006   STATUS:OLD                 
 FORMAT:FORMATTED              ACCESS:SEQUENTIAL          
 ACTION:READ                


 OPENED RL.chd
 FILE TYPE:CHD6                   UNIT 1007   STATUS:OLD                 
 FORMAT:FORMATTED              ACCESS:SEQUENTIAL          
 ACTION:READ                


 OPENED RL.npf
 FILE TYPE:NPF6                   UNIT 1008   STATUS:OLD                 
 FORMAT:FORMATTED              ACCESS:SEQUENTIAL          
 ACTION:READ                


 OPENED RL.oc
 FILE TYPE:OC6                    UNIT 1009   STATUS:OLD                 
 FORMAT:FORMATTED              ACCESS:SEQUENTIAL          
 ACTION:READ                

 NAMEFILE OPTIONS:
    FLOWS WILL BE SAVED TO BUDGET FILE SPECIFIED IN OUTPUT CONTROL

 DIS -- STRUCTURED GRID DISCRETIZATION PACKAGE, VERSION 2 : 3/27/2014 - INPUT READ FROM UNIT 1005


 # File generated by Flopy version 3.3.6 on 09/09/2022 at 13:29:33.
 PROCESSING DISCRETIZATION OPTIONS
 END OF DISCRETIZATION OPTIONS
 MODEL LENGTH UNIT IS UNDEFINED
 PROCESSING DISCRETIZATION DIMENSIONS
    NLAY =      50
    NROW =       1
    NCOL =      50
 END OF DISCRETIZATION DIMENSIONS
 PROCESSING GRIDDATA

                     DELR =   20.00000    

                     DELC =   1.000000    
 END PROCESSING GRIDDATA

 NPF -- NODE PROPERTY FLOW PACKAGE, VERSION 1, 3/30/2015 INPUT READ FROM UNIT 1008


 # File generated by Flopy version 3.3.6 on 09/09/2022 at 13:29:33.
 PROCESSING NPF OPTIONS
    CELL-BY-CELL FLOW INFORMATION WILL BE SAVED TO BINARY FILE WHENEVER ICBCFL IS NOT ZERO.
    XT3D FORMULATION IS SELECTED.
    SPECIFIC DISCHARGE WILL BE CALCULATED AT CELL CENTERS AND WRITTEN TO DATA-SPDIS IN BUDGET FILE WHEN REQUESTED.
 END OF NPF OPTIONS

 CHD   -- CHD PACKAGE, VERSION 8, 2/22/2014 INPUT READ FROM UNIT 1007
 # File generated by Flopy version 3.3.6 on 09/09/2022 at 13:29:33.

 PROCESSING CHD OPTIONS
 END OF CHD OPTIONS

 PROCESSING CHD DIMENSIONS
    MAXBOUND =     196
 END OF CHD DIMENSIONS

 IC -- INITIAL CONDITIONS PACKAGE, VERSION 8, 3/28/2015 INPUT READ FROM UNIT 1006
 # File generated by Flopy version 3.3.6 on 09/09/2022 at 13:29:33.
 PROCESSING GRIDDATA

     INITIAL HEAD =  -500.0000    
 END PROCESSING GRIDDATA
 PROCESSING GRIDDATA

                ICELLTYPE = 0

                   ANGLE1 =   0.000000    

                   ANGLE2 =   30.00000    

                   ANGLE3 =   0.000000    
 END PROCESSING GRIDDATA

 XT3D is active.


    BINARY GRID INFORMATION WILL BE WRITTEN TO:
      UNIT NUMBER: 1018
      FILE NAME: C:\Users\aprovost\Documents\ACTIVE\xt3d-vertically-staggered paper\python\transect_benchmark\RL.dis.grb

 OPENED C:\Users\aprovost\Documents\ACTIVE\xt3d-vertically-staggered paper\python\transect_benchmark\RL.dis.grb
 FILE TYPE:DATA(BINARY)   UNIT 1018   STATUS:REPLACE             
 FORMAT:UNFORMATTED            ACCESS:STREAM              
 ACTION:READWRITE           

      THE LAST TIME STEP WILL BE PRINTED
      THE LAST TIME STEP WILL BE PRINTED
 # File generated by Flopy version 3.3.6 on 09/09/2022 at 13:29:33.

 PROCESSING OC OPTIONS

    BUDGET INFORMATION WILL BE WRITTEN TO:
      UNIT NUMBER: 1019
      FILE NAME: RL.cbb

 OPENED RL.cbb
 FILE TYPE:DATA(BINARY)   UNIT 1019   STATUS:REPLACE             
 FORMAT:UNFORMATTED            ACCESS:STREAM              
 ACTION:READWRITE           

    HEAD INFORMATION WILL BE WRITTEN TO:
      UNIT NUMBER: 1020
      FILE NAME: RL.hds

 OPENED RL.hds
 FILE TYPE:DATA(BINARY)   UNIT 1020   STATUS:REPLACE             
 FORMAT:UNFORMATTED            ACCESS:STREAM              
 ACTION:READWRITE           

 END OF OC OPTIONS

start timestep kper="1" kstp="1" mode="normal"


 BEGIN READING OUTPUT CONTROL FOR STRESS PERIOD 1
      ALL TIME STEPS WILL BE SAVED
      ALL TIME STEPS WILL BE SAVED
      ALL TIME STEPS WILL BE PRINTED

 END READING OUTPUT CONTROL FOR STRESS PERIOD 1

 SLN_1 INNER ITERATION SUMMARY
 --------------------------------------------------------------------------------------------------------------------------------------
      TOTAL      OUTER      INNER                                                            MAXIMUM                                   
  ITERATION  ITERATION  ITERATION  MAXIMUM CHANGE      MAXIMUM CHANGE MODEL-(CELLID)        RESIDUAL    MAXIMUM RESIDUAL MODEL-(CELLID)
 --------------------------------------------------------------------------------------------------------------------------------------
          1          1          1      -882.11410                     1_GWF-(7,1,48)      -98.823662                     1_GWF-(8,1,48)
          2          1          2      -165.48287                    1_GWF-(14,1,37)      -32.160741                    1_GWF-(10,1,48)
          3          1          3       98.704292                    1_GWF-(20,1,44)      -31.714174                    1_GWF-(10,1,48)
          4          1          4       1047.4786                    1_GWF-(16,1,34)      -244.38076                    1_GWF-(10,1,48)
          5          1          5      -1212.9752                    1_GWF-(16,1,34)       1.7160044                     1_GWF-(8,1,48)
          6          1          6      -29.028914                    1_GWF-(20,1,25)      0.77092518                     1_GWF-(34,1,3)
          7          1          7      -14.259030                    1_GWF-(21,1,25)      0.74971737                    1_GWF-(20,1,43)
          8          1          8      -231.37526                    1_GWF-(21,1,25)      -1.4923578                     1_GWF-(9,1,49)
          9          1          9       174.35738                    1_GWF-(21,1,25)      0.15872509                     1_GWF-(36,1,2)
         10          1         10      -3.5553834                    1_GWF-(32,1,22)  9.86437595E-02                    1_GWF-(26,1,33)
         11          1         11       9.3794555                    1_GWF-(21,1,26)      0.15787123                    1_GWF-(11,1,43)
         12          1         12      -19.513983                    1_GWF-(21,1,26) -1.59292408E-02                    1_GWF-(11,1,43)
         13          1         13     -0.18097295                    1_GWF-(30,1,27)  1.53620470E-02                    1_GWF-(31,1,24)
         14          1         14      0.74041144                    1_GWF-(20,1,25)  6.25113559E-03                    1_GWF-(30,1,26)
         15          1         15       1.6594070                    1_GWF-(30,1,26)  4.72821548E-02                    1_GWF-(23,1,35)
         16          1         16      -2.2293438                    1_GWF-(30,1,26)  4.53212114E-03                    1_GWF-(32,1,22)
         17          1         17  3.57842665E-02                    1_GWF-(31,1,25)  1.19614504E-03                    1_GWF-(16,1,49)
         18          1         18 -1.38743902E-02                    1_GWF-(32,1,22)  1.07446027E-03                    1_GWF-(16,1,49)
         19          1         19 -5.94275861E-02                    1_GWF-(31,1,25)  5.61819834E-04                    1_GWF-(16,1,49)
         20          1         20 -5.52878136E-02                    1_GWF-(30,1,27)  1.13027086E-04                    1_GWF-(32,1,22)
         21          1         21  1.30207325E-02                    1_GWF-(30,1,26)  2.64606701E-04                    1_GWF-(34,1,19)
         22          1         22 -4.62862849E-03                    1_GWF-(30,1,26)  1.59079755E-04                    1_GWF-(16,1,49)
         23          2          1      -661.58553                     1_GWF-(7,1,48)      -74.117749                     1_GWF-(8,1,48)
         24          2          2      -124.11210                    1_GWF-(14,1,37)      -24.120555                    1_GWF-(10,1,48)
         25          2          3       74.028222                    1_GWF-(20,1,44)      -23.785630                    1_GWF-(10,1,48)
         26          2          4       785.60528                    1_GWF-(16,1,34)      -183.28509                    1_GWF-(10,1,48)
         27          2          5      -909.72751                    1_GWF-(16,1,34)       1.2870040                     1_GWF-(8,1,48)
         28          2          6      -21.771605                    1_GWF-(20,1,25)      0.57819330                     1_GWF-(34,1,3)
         29          2          7      -10.694245                    1_GWF-(21,1,25)      0.56229165                    1_GWF-(20,1,43)
         30          2          8      -173.53085                    1_GWF-(21,1,25)      -1.1192614                     1_GWF-(9,1,49)
         31          2          9       130.76742                    1_GWF-(21,1,25)      0.11904378                     1_GWF-(36,1,2)
         32          2         10      -2.6665406                    1_GWF-(32,1,22)  7.39819583E-02                    1_GWF-(26,1,33)
         33          2         11       7.0344939                    1_GWF-(21,1,26)      0.11840279                    1_GWF-(11,1,43)
         34          2         12      -14.635479                    1_GWF-(21,1,26) -1.19476040E-02                    1_GWF-(11,1,43)
         35          2         13     -0.13585489                    1_GWF-(30,1,27)  1.15243648E-02                    1_GWF-(31,1,24)
         36          2         14      0.55561131                    1_GWF-(20,1,25)  4.68809982E-03                    1_GWF-(30,1,26)
         37          2         15       1.2446487                    1_GWF-(30,1,26)  3.54560583E-02                    1_GWF-(23,1,35)
         38          2         16      -1.6721712                    1_GWF-(30,1,26)  3.39969885E-03                    1_GWF-(32,1,22)
         39          2         17  2.68415801E-02                    1_GWF-(31,1,25)  8.97280720E-04                    1_GWF-(16,1,49)
         40          2         18 -1.04055075E-02                    1_GWF-(32,1,22)  8.06037814E-04                    1_GWF-(16,1,49)
         41          2         19 -4.45809587E-02                    1_GWF-(31,1,25)  4.21464247E-04                    1_GWF-(16,1,49)
         42          2         20 -4.14741834E-02                    1_GWF-(30,1,27)  8.47694718E-05                    1_GWF-(32,1,22)
         43          2         21  9.76281381E-03                    1_GWF-(30,1,26)  1.98552350E-04                    1_GWF-(34,1,19)
         44          3          1      -496.18910                     1_GWF-(7,1,48)      -55.588309                     1_GWF-(8,1,48)
         45          3          2      -93.084037                    1_GWF-(14,1,37)      -18.090409                    1_GWF-(10,1,48)
         46          3          3       55.521178                    1_GWF-(20,1,44)      -17.839221                    1_GWF-(10,1,48)
         47          3          4       589.20123                    1_GWF-(16,1,34)      -137.46346                    1_GWF-(10,1,48)
         48          3          5      -682.29273                    1_GWF-(16,1,34)      0.96525414                     1_GWF-(8,1,48)
         49          3          6      -16.328634                    1_GWF-(20,1,25)      0.43364457                     1_GWF-(34,1,3)
         50          3          7      -8.0206616                    1_GWF-(21,1,25)      0.42172296                    1_GWF-(20,1,43)
         51          3          8      -130.14749                    1_GWF-(21,1,25)     -0.83943858                     1_GWF-(9,1,49)
         52          3          9       98.074890                    1_GWF-(21,1,25)  8.92828209E-02                     1_GWF-(36,1,2)
         53          3         10      -1.9998897                    1_GWF-(32,1,22)  5.54853715E-02                    1_GWF-(26,1,33)
         54          3         11       5.2757332                    1_GWF-(21,1,26)  8.88001861E-02                    1_GWF-(11,1,43)
         55          3         12      -10.976602                    1_GWF-(21,1,26) -8.96146093E-03                    1_GWF-(11,1,43)
         56          3         13     -0.10204795                    1_GWF-(30,1,27)  8.64694559E-03                    1_GWF-(31,1,24)
         57          3         14      0.41709116                    1_GWF-(20,1,25)  3.51568719E-03                    1_GWF-(30,1,26)
         58          3         15      0.93338512                    1_GWF-(30,1,26)  2.65803669E-02                    1_GWF-(23,1,35)
         59          3         16      -1.2541100                    1_GWF-(30,1,26)  2.55027085E-03                    1_GWF-(32,1,22)
         60          3         17  2.01352225E-02                    1_GWF-(31,1,25)  6.73158194E-04                    1_GWF-(16,1,49)
         61          3         18 -7.80406544E-03                    1_GWF-(32,1,22)  6.04747232E-04                    1_GWF-(16,1,49)
         62          4          1      -372.14169                     1_GWF-(7,1,48)      -41.691218                     1_GWF-(8,1,48)
         63          4          2      -69.812914                    1_GWF-(14,1,37)      -13.567800                    1_GWF-(10,1,48)
         64          4          3       41.640870                    1_GWF-(20,1,44)      -13.379407                    1_GWF-(10,1,48)
         65          4          4       441.88005                    1_GWF-(16,1,34)      -103.09367                    1_GWF-(10,1,48)
         66          4          5      -511.69837                    1_GWF-(16,1,34)      0.72395061                     1_GWF-(8,1,48)
         67          4          6      -12.246334                    1_GWF-(20,1,25)      0.32523491                     1_GWF-(34,1,3)
         68          4          7      -6.0154077                    1_GWF-(21,1,25)      0.31630893                    1_GWF-(20,1,43)
         69          4          8      -97.608139                    1_GWF-(21,1,25)     -0.62954753                     1_GWF-(9,1,49)
         70          4          9       73.553193                    1_GWF-(21,1,25)  6.69622030E-02                     1_GWF-(36,1,2)
         71          4         10      -1.4999774                    1_GWF-(32,1,22)  4.16143274E-02                    1_GWF-(26,1,33)
         72          4         11       3.9561201                    1_GWF-(21,1,26)  6.65955127E-02                    1_GWF-(11,1,43)
         73          4         12      -8.2322812                    1_GWF-(21,1,26) -6.72537481E-03                    1_GWF-(11,1,43)
         74          4         13 -7.73178566E-02                    1_GWF-(30,1,27)  6.50349381E-03                    1_GWF-(31,1,24)
         75          4         14      0.31471450                    1_GWF-(20,1,25)  2.63582052E-03                    1_GWF-(30,1,26)
         76          4         15      0.70074072                    1_GWF-(30,1,26)  1.99044201E-02                    1_GWF-(23,1,35)
         77          4         16     -0.94170566                    1_GWF-(30,1,26)  1.91709740E-03                    1_GWF-(32,1,22)
         78          4         17  1.51244445E-02                    1_GWF-(31,1,25)  5.05958969E-04                    1_GWF-(16,1,49)
         79          4         18 -5.85308470E-03                    1_GWF-(32,1,22)  4.54755923E-04                    1_GWF-(16,1,49)
         80          5          1      -279.10617                     1_GWF-(7,1,48)      -31.268403                     1_GWF-(8,1,48)
         81          5          2      -52.359599                    1_GWF-(14,1,37)      -10.175845                    1_GWF-(10,1,48)
         82          5          3       31.230642                    1_GWF-(20,1,44)      -10.034549                    1_GWF-(10,1,48)
         83          5          4       331.39435                    1_GWF-(16,1,34)      -77.317303                    1_GWF-(10,1,48)
         84          5          5      -383.75786                    1_GWF-(16,1,34)      0.54297046                     1_GWF-(8,1,48)
         85          5          6      -9.1846428                    1_GWF-(20,1,25)      0.24392728                     1_GWF-(34,1,3)
         86          5          7      -4.5114890                    1_GWF-(21,1,25)      0.23724424                    1_GWF-(20,1,43)
         87          5          8      -73.204243                    1_GWF-(21,1,25)     -0.47213707                     1_GWF-(9,1,49)
         88          5          9       55.162662                    1_GWF-(21,1,25)  5.02217160E-02                     1_GWF-(36,1,2)
         89          5         10      -1.1250280                    1_GWF-(32,1,22)  3.12109495E-02                    1_GWF-(26,1,33)
         90          5         11       2.9665800                    1_GWF-(21,1,26)  4.99431641E-02                    1_GWF-(11,1,43)
         91          5         12      -6.1740832                    1_GWF-(21,1,26) -5.04724170E-03                    1_GWF-(11,1,43)
         92          5         13 -5.85898809E-02                    1_GWF-(30,1,27)  4.89153405E-03                    1_GWF-(31,1,24)
         93          5         14      0.23748128                    1_GWF-(20,1,25)  1.97614100E-03                    1_GWF-(30,1,26)
         94          5         15      0.52608162                    1_GWF-(30,1,26)  1.49049801E-02                    1_GWF-(23,1,35)
         95          5         16     -0.70712188                    1_GWF-(30,1,26)  1.44106381E-03                    1_GWF-(32,1,22)
         96          5         17  1.13604832E-02                    1_GWF-(31,1,25)  3.80288333E-04                    1_GWF-(16,1,49)
         97          5         18 -4.38980120E-03                    1_GWF-(32,1,22)  3.41965117E-04                    1_GWF-(16,1,49)
         98          6          1      -209.32955                     1_GWF-(7,1,48)      -23.451294                     1_GWF-(8,1,48)
         99          6          2      -39.269633                    1_GWF-(14,1,37)      -7.6318800                    1_GWF-(10,1,48)
        100          6          3       23.422974                    1_GWF-(20,1,44)      -7.5259070                    1_GWF-(10,1,48)
        101          6          4       248.53398                    1_GWF-(16,1,34)      -57.985765                    1_GWF-(10,1,48)
        102          6          5      -287.80644                    1_GWF-(16,1,34)      0.40723347                     1_GWF-(8,1,48)
        103          6          6      -6.8884007                    1_GWF-(20,1,25)      0.18294628                     1_GWF-(34,1,3)
        104          6          7      -3.3835663                    1_GWF-(21,1,25)      0.17794259                    1_GWF-(20,1,43)
        105          6          8      -54.901785                    1_GWF-(21,1,25)     -0.35408511                     1_GWF-(9,1,49)
        106          6          9       41.370320                    1_GWF-(21,1,25)  3.76663335E-02                     1_GWF-(36,1,2)
        107          6         10     -0.84380467                    1_GWF-(32,1,22)  2.34083499E-02                    1_GWF-(26,1,33)
        108          6         11       2.2245523                    1_GWF-(21,1,26)  3.74547701E-02                    1_GWF-(11,1,43)
        109          6         12      -4.6304667                    1_GWF-(21,1,26) -3.78784016E-03                    1_GWF-(11,1,43)
        110          6         13 -4.44051185E-02                    1_GWF-(30,1,27)  3.67923993E-03                    1_GWF-(31,1,24)
        111          6         14      0.17921294                    1_GWF-(20,1,25)  1.48155067E-03                    1_GWF-(30,1,26)
        112          6         15      0.39495548                    1_GWF-(30,1,26)  1.12065077E-02                    1_GWF-(30,1,26)
        113          6         16     -0.53097353                    1_GWF-(30,1,26)  1.08318595E-03                    1_GWF-(32,1,22)
        114          6         17  8.53313088E-03                    1_GWF-(31,1,25)  2.85831567E-04                    1_GWF-(16,1,49)
        115          7          1      -156.99710                     1_GWF-(7,1,48)      -17.588468                     1_GWF-(8,1,48)
        116          7          2      -29.452157                    1_GWF-(14,1,37)      -5.7239106                    1_GWF-(10,1,48)
        117          7          3       17.567264                    1_GWF-(20,1,44)      -5.6444338                    1_GWF-(10,1,48)
        118          7          4       186.39607                    1_GWF-(16,1,34)      -43.488677                    1_GWF-(10,1,48)
        119          7          5      -215.85026                    1_GWF-(16,1,34)      0.30542850                     1_GWF-(8,1,48)
        120          7          6      -5.1662275                    1_GWF-(20,1,25)      0.13721021                     1_GWF-(34,1,3)
        121          7          7      -2.5376406                    1_GWF-(21,1,25)      0.13346641                    1_GWF-(20,1,43)
        122          7          8      -41.173862                    1_GWF-(21,1,25)     -0.26553796                     1_GWF-(9,1,49)
        123          7          9       31.025096                    1_GWF-(21,1,25)  2.82504969E-02                     1_GWF-(36,1,2)
        124          7         10     -0.63290871                    1_GWF-(32,1,22)  1.75564771E-02                    1_GWF-(26,1,33)
        125          7         11       1.6687457                    1_GWF-(21,1,26)  2.80948272E-02                    1_GWF-(11,1,43)
        126          7         12      -3.4730842                    1_GWF-(21,1,26) -2.83988689E-03                    1_GWF-(11,1,43)
        127          7         13 -3.31195757E-02                    1_GWF-(30,1,27)  2.75504159E-03                    1_GWF-(31,1,24)
        128          7         14      0.13394740                    1_GWF-(20,1,25)  1.11116990E-03                    1_GWF-(30,1,26)
        129          7         15      0.29598193                    1_GWF-(30,1,26)  8.38500365E-03                    1_GWF-(30,1,26)
        130          7         16     -0.39790599                    1_GWF-(30,1,26)  8.11130297E-04                    1_GWF-(32,1,22)
        131          7         17  6.39496517E-03                    1_GWF-(31,1,25)  2.14109100E-04                    1_GWF-(16,1,49)
        132          8          1      -117.74778                     1_GWF-(7,1,48)      -13.191349                     1_GWF-(8,1,48)
        133          8          2      -22.089067                    1_GWF-(14,1,37)      -4.2929334                    1_GWF-(10,1,48)
        134          8          3       13.175473                    1_GWF-(20,1,44)      -4.2333280                    1_GWF-(10,1,48)
        135          8          4       139.79376                    1_GWF-(16,1,34)      -32.616024                    1_GWF-(10,1,48)
        136          8          5      -161.88428                    1_GWF-(16,1,34)      0.22907393                     1_GWF-(8,1,48)
        137          8          6      -3.8746161                    1_GWF-(20,1,25)      0.10290804                     1_GWF-(34,1,3)
        138          8          7      -1.9032049                    1_GWF-(21,1,25)      0.10010690                    1_GWF-(20,1,43)
        139          8          8      -30.878542                    1_GWF-(21,1,25)     -0.19913408                     1_GWF-(9,1,49)
        140          8          9       23.266841                    1_GWF-(21,1,25)  2.11884311E-02                     1_GWF-(36,1,2)
        141          8         10     -0.47472283                    1_GWF-(32,1,22)  1.31675148E-02                    1_GWF-(26,1,33)
        142          8         11       1.2518071                    1_GWF-(21,1,26)  2.10739265E-02                    1_GWF-(11,1,43)
        143          8         12      -2.6049884                    1_GWF-(21,1,26) -2.12917337E-03                    1_GWF-(11,1,43)
        144          8         13 -2.47037800E-02                    1_GWF-(30,1,27)  2.06302645E-03                    1_GWF-(31,1,24)
        145          8         14      0.10011804                    1_GWF-(20,1,25)  8.33380384E-04                    1_GWF-(30,1,26)
        146          8         15      0.22181131                    1_GWF-(30,1,26)  6.28437273E-03                    1_GWF-(23,1,35)
        147          8         16     -0.29818760                    1_GWF-(30,1,26)  6.07400480E-04                    1_GWF-(32,1,22)
        148          8         17  4.79256050E-03                    1_GWF-(31,1,25)  1.60384426E-04                    1_GWF-(16,1,49)
        149          9          1      -88.310796                     1_GWF-(7,1,48)      -9.8935106                     1_GWF-(8,1,48)
        150          9          2      -16.566762                    1_GWF-(14,1,37)      -3.2197004                    1_GWF-(10,1,48)
        151          9          3       9.8816239                    1_GWF-(20,1,44)      -3.1749980                    1_GWF-(10,1,48)
        152          9          4       104.84286                    1_GWF-(16,1,34)      -24.461656                    1_GWF-(10,1,48)
        153          9          5      -121.41065                    1_GWF-(16,1,34)      0.17180737                     1_GWF-(8,1,48)
        154          9          6      -2.9059213                    1_GWF-(20,1,25)  7.71813219E-02                     1_GWF-(34,1,3)
        155          9          7      -1.4273846                    1_GWF-(21,1,25)  7.50854930E-02                    1_GWF-(20,1,43)
        156          9          8      -23.157517                    1_GWF-(21,1,25)     -0.14933604                     1_GWF-(9,1,49)
        157          9          9       17.448647                    1_GWF-(21,1,25)  1.58917410E-02                     1_GWF-(36,1,2)
        158          9         10     -0.35607300                    1_GWF-(32,1,22)  9.87575074E-03                    1_GWF-(26,1,33)
        159          9         11      0.93904077                    1_GWF-(21,1,26)  1.58075450E-02                    1_GWF-(11,1,43)
        160          9         12      -1.9538726                    1_GWF-(21,1,26) -1.59632601E-03                    1_GWF-(11,1,43)
        161          9         13 -1.84275935E-02                    1_GWF-(30,1,27)  1.54485563E-03                    1_GWF-(31,1,24)
        162          9         14  7.48347428E-02                    1_GWF-(20,1,25)  6.25035872E-04                    1_GWF-(30,1,26)
        163          9         15      0.16622778                    1_GWF-(30,1,26)  4.71558607E-03                    1_GWF-(23,1,35)
        164          9         16     -0.22346019                    1_GWF-(30,1,26)  4.54837904E-04                    1_GWF-(32,1,22)
        165          9         17  3.59167225E-03                    1_GWF-(31,1,25)  1.20141038E-04                    1_GWF-(16,1,49)
        166         10          1      -66.233070                     1_GWF-(7,1,48)      -7.4201319                     1_GWF-(8,1,48)
        167         10          2      -12.425043                    1_GWF-(14,1,37)      -2.4147755                    1_GWF-(10,1,48)
        168         10          3       7.4112320                    1_GWF-(20,1,44)      -2.3812501                    1_GWF-(10,1,48)
        169         10          4       78.630301                    1_GWF-(16,1,34)      -18.345972                    1_GWF-(10,1,48)
        170         10          5      -91.056081                    1_GWF-(16,1,34)      0.12885696                     1_GWF-(8,1,48)
        171         10          6      -2.1794106                    1_GWF-(20,1,25)  5.78862106E-02                     1_GWF-(34,1,3)
        172         10          7      -1.0705241                    1_GWF-(21,1,25)  5.63181047E-02                    1_GWF-(20,1,43)
        173         10          8      -17.367098                    1_GWF-(21,1,25)     -0.11199115                     1_GWF-(9,1,49)
        174         10          9       13.085374                    1_GWF-(21,1,25)  1.19191181E-02                     1_GWF-(36,1,2)
        175         10         10     -0.26707785                    1_GWF-(32,1,22)  7.40689683E-03                    1_GWF-(26,1,33)
        176         10         11      0.70441926                    1_GWF-(21,1,26)  1.18572304E-02                    1_GWF-(11,1,43)
        177         10         12      -1.4655027                    1_GWF-(21,1,26) -1.19683073E-03                    1_GWF-(11,1,43)
        178         10         13 -1.37467506E-02                    1_GWF-(30,1,27)  1.15685080E-03                    1_GWF-(31,1,24)
        179         10         14  5.59379947E-02                    1_GWF-(20,1,25)  4.68776131E-04                    1_GWF-(30,1,26)
        180         10         15      0.12457329                    1_GWF-(30,1,26)  3.53839923E-03                    1_GWF-(23,1,35)
        181         10         16     -0.16746043                    1_GWF-(30,1,26)  3.40592660E-04                    1_GWF-(32,1,22)
        182         10         17  2.69169284E-03                    1_GWF-(31,1,25)  8.99958893E-05                    1_GWF-(16,1,49)
        183         11          1      -49.674782                     1_GWF-(7,1,48)      -5.5650982                     1_GWF-(8,1,48)
        184         11          2      -9.3187609                    1_GWF-(14,1,37)      -1.8110818                    1_GWF-(10,1,48)
        185         11          3       5.5584346                    1_GWF-(20,1,44)      -1.7859387                    1_GWF-(10,1,48)
        186         11          4       58.971350                    1_GWF-(16,1,34)      -13.759277                    1_GWF-(10,1,48)
        187         11          5      -68.290634                    1_GWF-(16,1,34)  9.66438018E-02                     1_GWF-(8,1,48)
        188         11          6      -1.6345352                    1_GWF-(20,1,25)  4.34148238E-02                     1_GWF-(34,1,3)
        189         11          7     -0.80288240                    1_GWF-(21,1,25)  4.22415651E-02                    1_GWF-(20,1,43)
        190         11          8      -13.024544                    1_GWF-(21,1,25) -8.39852166E-02                     1_GWF-(9,1,49)
        191         11          9       9.8131979                    1_GWF-(21,1,25)  8.93957213E-03                     1_GWF-(36,1,2)
        192         11         10     -0.20032566                    1_GWF-(32,1,22)  5.55523379E-03                    1_GWF-(26,1,33)
        193         11         11      0.52841817                    1_GWF-(21,1,26)  8.89409905E-03                    1_GWF-(11,1,43)
        194         11         12      -1.0992006                    1_GWF-(21,1,26) -8.97313990E-04                    1_GWF-(11,1,43)
        195         11         13 -1.02555125E-02                    1_GWF-(30,1,27)  8.66309415E-04                    1_GWF-(31,1,24)
        196         11         14  4.18141237E-02                    1_GWF-(20,1,25)  3.51580620E-04                    1_GWF-(30,1,26)
        197         11         15  9.33571661E-02                    1_GWF-(30,1,26)  2.65506672E-03                    1_GWF-(23,1,35)
        198         11         16     -0.12549480                    1_GWF-(30,1,26)  2.55041668E-04                    1_GWF-(32,1,22)
        199         11         17  2.01722358E-03                    1_GWF-(31,1,25)  6.74149255E-05                    1_GWF-(16,1,49)
        200         12          1      -37.256072                     1_GWF-(7,1,48)      -4.1738230                     1_GWF-(8,1,48)
        201         12          2      -6.9890548                    1_GWF-(14,1,37)      -1.3583115                    1_GWF-(10,1,48)
        202         12          3       4.1688338                    1_GWF-(20,1,44)      -1.3394549                    1_GWF-(10,1,48)
        203         12          4       44.227483                    1_GWF-(16,1,34)      -10.319306                    1_GWF-(10,1,48)
        204         12          5      -51.216909                    1_GWF-(16,1,34)  7.24836616E-02                     1_GWF-(8,1,48)
        205         12          6      -1.2258845                    1_GWF-(20,1,25)  3.25612433E-02                     1_GWF-(34,1,3)
        206         12          7     -0.60215380                    1_GWF-(21,1,25)  3.16834123E-02                    1_GWF-(20,1,43)
        207         12          8      -9.7678245                    1_GWF-(21,1,25) -6.29828085E-02                     1_GWF-(9,1,49)
        208         12          9       7.3592748                    1_GWF-(21,1,25)  6.70485380E-03                     1_GWF-(36,1,2)
        209         12         10     -0.15025716                    1_GWF-(32,1,22)  4.16647000E-03                    1_GWF-(26,1,33)
        210         12         11      0.39639122                    1_GWF-(21,1,26)  6.67145461E-03                    1_GWF-(11,1,43)
        211         12         12     -0.82445556                    1_GWF-(21,1,26) -6.72754656E-04                    1_GWF-(11,1,43)
        212         12         13 -7.65138814E-03                    1_GWF-(30,1,27)  6.48746217E-04                    1_GWF-(31,1,24)
        213         13          1      -27.941832                     1_GWF-(7,1,48)      -3.1303741                     1_GWF-(8,1,48)
        214         13          2      -5.2415173                    1_GWF-(14,1,37)      -1.0187249                    1_GWF-(10,1,48)
        215         13          3       3.1266286                    1_GWF-(20,1,44)      -1.0045697                    1_GWF-(10,1,48)
        216         13          4       33.153663                    1_GWF-(16,1,34)      -7.7373970                    1_GWF-(10,1,48)
        217         13          5      -38.394500                    1_GWF-(16,1,34)  5.43550575E-02                     1_GWF-(8,1,48)
        218         13          6     -0.91901659                    1_GWF-(20,1,25)  2.44147761E-02                     1_GWF-(34,1,3)
        219         13          7     -0.45154975                    1_GWF-(21,1,25)  2.37583162E-02                    1_GWF-(20,1,43)
        220         13          8      -7.3371792                    1_GWF-(21,1,25) -4.73330396E-02                     1_GWF-(9,1,49)
        221         13          9       5.5309156                    1_GWF-(21,1,25)  5.02238200E-03                     1_GWF-(36,1,2)
        222         13         10     -0.11240612                    1_GWF-(32,1,22)  3.10318937E-03                    1_GWF-(26,1,33)
        223         13         11      0.29460117                    1_GWF-(21,1,26)  4.98465116E-03                    1_GWF-(11,1,43)
        224         13         12     -0.61718281                    1_GWF-(21,1,26) -5.18643097E-04                    1_GWF-(11,1,43)
        225         13         13 -1.07543784E-02                    1_GWF-(22,1,24)  5.64686625E-04                    1_GWF-(31,1,24)
        226         13         14  3.22361529E-02                    1_GWF-(21,1,24)  1.98760602E-04                    1_GWF-(23,1,35)
        227         13         15  5.65609143E-02                    1_GWF-(30,1,26)  1.75459915E-03                    1_GWF-(30,1,26)
        228         13         16 -7.59698918E-02                    1_GWF-(30,1,26)  1.52607975E-04                    1_GWF-(32,1,22)
        229         13         17  1.18195907E-03                    1_GWF-(31,1,25)  4.15184763E-05                    1_GWF-(16,1,49)
        230         14          1      -20.956364                     1_GWF-(7,1,48)      -2.3477804                     1_GWF-(8,1,48)
        231         14          2      -3.9311265                    1_GWF-(14,1,37)     -0.76404389                    1_GWF-(10,1,48)
        232         14          3       2.3449769                    1_GWF-(20,1,44)     -0.75342771                    1_GWF-(10,1,48)
        233         14          4       24.864559                    1_GWF-(16,1,34)      -5.8029531                    1_GWF-(10,1,48)
        234         14          5      -28.795155                    1_GWF-(16,1,34)  4.07667156E-02                     1_GWF-(8,1,48)
        235         14          6     -0.68924919                    1_GWF-(20,1,25)  1.83110994E-02                     1_GWF-(34,1,3)
        236         14          7     -0.33865677                    1_GWF-(21,1,25)  1.78200684E-02                    1_GWF-(20,1,43)
        237         14          8      -5.5025208                    1_GWF-(21,1,25) -3.54960519E-02                     1_GWF-(9,1,49)
        238         14          9       4.1478054                    1_GWF-(21,1,25)  3.76690600E-03                     1_GWF-(36,1,2)
        239         14         10 -8.43133034E-02                    1_GWF-(32,1,22)  2.32746448E-03                    1_GWF-(26,1,33)
        240         14         11      0.22100525                    1_GWF-(21,1,26)  3.73908746E-03                    1_GWF-(11,1,43)
        241         14         12     -0.46292298                    1_GWF-(21,1,26) -3.88804891E-04                    1_GWF-(11,1,43)
        242         14         13 -7.91899835E-03                    1_GWF-(22,1,24)  4.22002234E-04                    1_GWF-(31,1,24)
        243         15          1      -15.717107                     1_GWF-(7,1,48)      -1.7608468                     1_GWF-(8,1,48)
        244         15          2      -2.9481126                    1_GWF-(14,1,37)     -0.57302929                    1_GWF-(10,1,48)
        245         15          3       1.7587175                    1_GWF-(20,1,44)     -0.56505126                    1_GWF-(10,1,48)
        246         15          4       18.636603                    1_GWF-(16,1,34)      -4.3510403                    1_GWF-(10,1,48)
        247         15          5      -21.583459                    1_GWF-(16,1,34)  3.05682735E-02                     1_GWF-(8,1,48)
        248         15          6     -0.51657247                    1_GWF-(20,1,25)  1.37266875E-02                     1_GWF-(34,1,3)
        249         15          7     -0.25390412                    1_GWF-(21,1,25)  1.33579526E-02                    1_GWF-(20,1,43)
        250         15          8      -4.1353356                    1_GWF-(21,1,25) -2.66985864E-02                     1_GWF-(9,1,49)
        251         15          9       3.1196763                    1_GWF-(21,1,25)  2.82055942E-03                     1_GWF-(36,1,2)
        252         15         10 -6.30076063E-02                    1_GWF-(32,1,22)  1.72855020E-03                    1_GWF-(26,1,33)
        253         15         11      0.16394039                    1_GWF-(21,1,26)  2.79123074E-03                    1_GWF-(11,1,43)
        254         15         12     -0.34637622                    1_GWF-(21,1,26) -3.00699421E-04                    1_GWF-(11,1,43)
        255         15         13 -2.35510143E-02                    1_GWF-(21,1,26) -5.27047346E-04                    1_GWF-(11,1,43)
        256         15         14  3.66288592E-02                    1_GWF-(21,1,25)  1.14384713E-04                    1_GWF-(23,1,35)
        257         15         15  3.41512370E-02                    1_GWF-(30,1,26)  1.11712644E-03                    1_GWF-(30,1,26)
        258         15         16 -4.58931578E-02                    1_GWF-(30,1,26)  7.93170332E-05                    1_GWF-(32,1,22)
        259         15         17  6.61974563E-04                    1_GWF-(31,1,25)  2.55575252E-05                    1_GWF-(16,1,49)
        260         16          1      -11.787823                     1_GWF-(7,1,48)      -1.3206351                     1_GWF-(8,1,48)
        261         16          2      -2.2110765                    1_GWF-(14,1,37)     -0.42977214                    1_GWF-(10,1,48)
        262         16          3       1.3190420                    1_GWF-(20,1,44)     -0.42378862                    1_GWF-(10,1,48)
        263         16          4       13.976992                    1_GWF-(16,1,34)      -3.2632199                    1_GWF-(10,1,48)
        264         16          5      -16.187110                    1_GWF-(16,1,34)  2.29264279E-02                     1_GWF-(8,1,48)
        265         16          6     -0.38741963                    1_GWF-(20,1,25)  1.02949925E-02                     1_GWF-(34,1,3)
        266         16          7     -0.19042433                    1_GWF-(21,1,25)  1.00192687E-02                    1_GWF-(20,1,43)
        267         16          8      -3.1012738                    1_GWF-(21,1,25) -2.00216487E-02                     1_GWF-(9,1,49)
        268         16          9       2.3395225                    1_GWF-(21,1,25)  2.11550452E-03                     1_GWF-(36,1,2)
        269         16         10 -4.72617537E-02                    1_GWF-(32,1,22)  1.29651579E-03                    1_GWF-(26,1,33)
        270         16         11      0.12299326                    1_GWF-(21,1,26)  2.09382772E-03                    1_GWF-(11,1,43)
        271         16         12     -0.25980541                    1_GWF-(21,1,26) -2.25390506E-04                    1_GWF-(11,1,43)
        272         16         13 -1.70623945E-02                    1_GWF-(21,1,26) -3.86508795E-04                    1_GWF-(11,1,43)
        273         16         14  2.68524362E-02                    1_GWF-(21,1,25)  8.57519667E-05                    1_GWF-(23,1,35)
        274         16         15  2.55947499E-02                    1_GWF-(30,1,26)  8.36751240E-04                    1_GWF-(30,1,26)
        275         16         16 -3.43897935E-02                    1_GWF-(30,1,26)  5.96586358E-05                    1_GWF-(32,1,22)
        276         16         17  4.96701486E-04                    1_GWF-(31,1,25)  1.91359290E-05                    1_GWF-(16,1,49)
        277         17          1      -8.8408626                     1_GWF-(7,1,48)     -0.99047635                     1_GWF-(8,1,48)
        278         17          2      -1.6583014                    1_GWF-(14,1,37)     -0.32232924                    1_GWF-(10,1,48)
        279         17          3      0.98928436                    1_GWF-(20,1,44)     -0.31784160                    1_GWF-(10,1,48)
        280         17          4       10.482401                    1_GWF-(16,1,34)      -2.4473699                    1_GWF-(10,1,48)
        281         17          5      -12.139971                    1_GWF-(16,1,34)  1.71949880E-02                     1_GWF-(8,1,48)
        282         17          6     -0.29055746                    1_GWF-(20,1,25)  7.72122754E-03                     1_GWF-(34,1,3)
        283         17          7     -0.14281544                    1_GWF-(21,1,25)  7.51505383E-03                    1_GWF-(20,1,43)
        284         17          8      -2.3257847                    1_GWF-(21,1,25) -1.50145209E-02                     1_GWF-(9,1,49)
        285         17          9       1.7544661                    1_GWF-(21,1,25)  1.58669178E-03                     1_GWF-(36,1,2)
        286         17         10 -3.54508311E-02                    1_GWF-(32,1,22)  9.72462720E-04                    1_GWF-(26,1,33)
        287         17         11  9.22733329E-02                    1_GWF-(21,1,26)  1.57067363E-03                    1_GWF-(11,1,43)
        288         17         12     -0.19487147                    1_GWF-(21,1,26) -1.68942790E-04                    1_GWF-(11,1,43)
        289         17         13 -1.23699913E-02                    1_GWF-(21,1,26) -2.83635142E-04                    1_GWF-(11,1,43)
        290         17         14  1.96988445E-02                    1_GWF-(21,1,25)  6.42864523E-05                    1_GWF-(23,1,35)
        291         17         15  1.91819364E-02                    1_GWF-(30,1,26)  6.26714107E-04                    1_GWF-(30,1,26)
        292         17         16 -2.57696862E-02                    1_GWF-(30,1,26)  4.48696507E-05                    1_GWF-(32,1,22)
        293         17         17  3.72685401E-04                    1_GWF-(31,1,25)  1.43278047E-05                    1_GWF-(16,1,49)
        294         18          1      -6.6306433                     1_GWF-(7,1,48)     -0.74285727                     1_GWF-(8,1,48)
        295         18          2      -1.2437216                    1_GWF-(14,1,37)     -0.24174703                    1_GWF-(10,1,48)
        296         18          3      0.74196541                    1_GWF-(20,1,44)     -0.23838130                    1_GWF-(10,1,48)
        297         18          4       7.8615445                    1_GWF-(16,1,34)      -1.8354939                    1_GWF-(10,1,48)
        298         18          5      -9.1047091                    1_GWF-(16,1,34)  1.28963664E-02                     1_GWF-(8,1,48)
        299         18          6     -0.21791267                    1_GWF-(20,1,25)  5.79090834E-03                     1_GWF-(34,1,3)
        300         18          7     -0.10710948                    1_GWF-(21,1,25)  5.63674144E-03                    1_GWF-(20,1,43)
        301         18          8      -1.7442108                    1_GWF-(21,1,25) -1.12596060E-02                     1_GWF-(9,1,49)
        302         18          9       1.3157180                    1_GWF-(21,1,25)  1.19006615E-03                     1_GWF-(36,1,2)
        303         18         10 -2.65914946E-02                    1_GWF-(32,1,22)  7.29402855E-04                    1_GWF-(26,1,33)
        304         18         11  6.92262219E-02                    1_GWF-(21,1,26)  1.17823184E-03                    1_GWF-(11,1,43)
        305         18         12     -0.14616663                    1_GWF-(21,1,26) -1.26632371E-04                    1_GWF-(11,1,43)
        306         18         13 -8.97393665E-03                    1_GWF-(21,1,26) -2.08274807E-04                    1_GWF-(11,1,43)
        307         19          1      -4.9728846                     1_GWF-(7,1,48)     -0.55715407                     1_GWF-(8,1,48)
        308         19          2     -0.93263464                    1_GWF-(14,1,37)     -0.18131015                    1_GWF-(10,1,48)
        309         19          3      0.55645155                    1_GWF-(20,1,44)     -0.17877245                    1_GWF-(10,1,48)
        310         19          4       5.8900775                    1_GWF-(16,1,34)      -1.3762647                    1_GWF-(10,1,48)
        311         19          5      -6.8216775                    1_GWF-(16,1,34)  9.66702715E-03                     1_GWF-(8,1,48)
        312         19          6     -0.16316934                    1_GWF-(20,1,25)  4.33767624E-03                     1_GWF-(34,1,3)
        313         19          7 -8.02525522E-02                    1_GWF-(21,1,25)  4.21992913E-03                    1_GWF-(20,1,43)
        314         19          8      -1.3130520                    1_GWF-(21,1,25) -8.49292315E-03                     1_GWF-(9,1,49)
        315         19          9      0.99212286                    1_GWF-(21,1,25)  8.89940734E-04                     1_GWF-(36,1,2)
        316         19         10 -1.98050565E-02                    1_GWF-(32,1,22)  5.36719155E-04                    1_GWF-(26,1,33)
        317         19         11  5.10147750E-02                    1_GWF-(21,1,26)  8.76850527E-04                    1_GWF-(11,1,43)
        318         19         12     -0.10918349                    1_GWF-(21,1,26) -9.91780674E-05                    1_GWF-(11,1,43)
        319         19         13  1.76382409E-02                    1_GWF-(21,1,25)  1.76674537E-04                    1_GWF-(11,1,43)
        320         19         14 -1.33018568E-02                    1_GWF-(23,1,26)  3.82465157E-05                     1_GWF-(42,1,2)
        321         19         15  1.14227924E-02                    1_GWF-(30,1,26)  3.46178193E-04                    1_GWF-(26,1,33)
        322         19         16 -1.54381655E-02                    1_GWF-(30,1,26)  1.91853871E-05                    1_GWF-(32,1,22)
        323         19         17  2.03130246E-04                    1_GWF-(30,1,25)  8.82993803E-06                    1_GWF-(16,1,49)
        324         20          1      -3.7296611                     1_GWF-(7,1,48)     -0.41786559                     1_GWF-(8,1,48)
        325         20          2     -0.69947298                    1_GWF-(14,1,37)     -0.13598267                    1_GWF-(10,1,48)
        326         20          3      0.41734020                    1_GWF-(20,1,44)     -0.13407932                    1_GWF-(10,1,48)
        327         20          4       4.4173677                    1_GWF-(16,1,34)      -1.0321726                    1_GWF-(10,1,48)
        328         20          5      -5.1160580                    1_GWF-(16,1,34)  7.25033658E-03                     1_GWF-(8,1,48)
        329         20          6     -0.12237317                    1_GWF-(20,1,25)  3.25323861E-03                     1_GWF-(34,1,3)
        330         20          7 -6.01880266E-02                    1_GWF-(21,1,25)  3.16521853E-03                    1_GWF-(20,1,43)
        331         20          8     -0.98471065                    1_GWF-(21,1,25) -6.36891398E-03                     1_GWF-(9,1,49)
        332         20          9      0.74401277                    1_GWF-(21,1,25)  6.67489690E-04                     1_GWF-(36,1,2)
        333         20         10 -1.48562088E-02                    1_GWF-(32,1,22)  4.02617970E-04                    1_GWF-(26,1,33)
        334         20         11  3.82743502E-02                    1_GWF-(21,1,26)  6.57774965E-04                    1_GWF-(11,1,43)
        335         20         12 -8.18951975E-02                    1_GWF-(21,1,26) -7.43342595E-05                    1_GWF-(11,1,43)
        336         20         13  1.36384418E-02                    1_GWF-(21,1,25)  1.38410488E-04                    1_GWF-(11,1,43)
        337         20         14 -1.03803132E-02                    1_GWF-(23,1,25)  2.86592911E-05                     1_GWF-(42,1,2)
        338         20         15  8.56784748E-03                    1_GWF-(30,1,26)  2.60040982E-04                    1_GWF-(26,1,33)
        339         21          1      -2.7972692                     1_GWF-(7,1,48)     -0.31338866                     1_GWF-(8,1,48)
        340         21          2     -0.52467955                    1_GWF-(14,1,37)     -0.10198071                    1_GWF-(10,1,48)
        341         21          3      0.31299417                    1_GWF-(20,1,44)     -0.10055806                    1_GWF-(10,1,48)
        342         21          4       3.3117731                    1_GWF-(16,1,34)     -0.77343156                    1_GWF-(10,1,48)
        343         21          5      -3.8361249                    1_GWF-(16,1,34)  5.44170863E-03                     1_GWF-(8,1,48)
        344         21          6 -9.19000741E-02                    1_GWF-(20,1,25)  2.44312364E-03                     1_GWF-(34,1,3)
        345         21          7 -4.51640337E-02                    1_GWF-(21,1,25)  2.38085605E-03                    1_GWF-(20,1,43)
        346         21          8     -0.73483915                    1_GWF-(21,1,25) -4.74017784E-03                     1_GWF-(9,1,49)
        347         21          9      0.55399944                    1_GWF-(21,1,25)  5.02777078E-04                     1_GWF-(36,1,2)
        348         21         10 -1.12581954E-02                    1_GWF-(32,1,22)  3.11314002E-04                    1_GWF-(26,1,33)
        349         21         11  2.91648112E-02                    1_GWF-(21,1,26)  4.95675788E-04                    1_GWF-(11,1,43)
        350         21         12 -6.16473338E-02                    1_GWF-(21,1,26) -5.34040368E-05                    1_GWF-(11,1,43)
        351         21         13 -4.58798143E-03                    1_GWF-(21,1,26) -9.92766337E-05                    1_GWF-(11,1,43)
        352         22          1      -2.0979048                     1_GWF-(7,1,48)     -0.23504665                     1_GWF-(8,1,48)
        353         22          2     -0.39343414                    1_GWF-(14,1,37) -7.64852322E-02                    1_GWF-(10,1,48)
        354         22          3      0.23473699                    1_GWF-(20,1,44) -7.54113858E-02                    1_GWF-(10,1,48)
        355         22          4       2.4807455                    1_GWF-(16,1,34)     -0.57987178                    1_GWF-(10,1,48)
        356         22          5      -2.8736310                    1_GWF-(16,1,34)  4.07868416E-03                     1_GWF-(8,1,48)
        357         22          6 -6.87952447E-02                    1_GWF-(20,1,25)  1.82961070E-03                     1_GWF-(34,1,3)
        358         22          7 -3.38345313E-02                    1_GWF-(21,1,25)  1.78179078E-03                    1_GWF-(20,1,43)
        359         22          8     -0.55342722                    1_GWF-(21,1,25) -3.57801196E-03                     1_GWF-(9,1,49)
        360         22          9      0.41802456                    1_GWF-(21,1,25)  3.75869022E-04                     1_GWF-(36,1,2)
        361         22         10 -8.37959856E-03                    1_GWF-(32,1,22)  2.29053826E-04                    1_GWF-(26,1,33)
        362         23          1      -1.5736463                     1_GWF-(7,1,48)     -0.17633157                     1_GWF-(8,1,48)
        363         23          2     -0.29527601                    1_GWF-(14,1,37) -5.74161023E-02                    1_GWF-(10,1,48)
        364         23          3      0.17597507                    1_GWF-(20,1,44) -5.66405926E-02                    1_GWF-(10,1,48)
        365         23          4       1.8658561                    1_GWF-(16,1,34)     -0.43458338                    1_GWF-(10,1,48)
        366         23          5      -2.1620359                    1_GWF-(16,1,34)  3.06038618E-03                     1_GWF-(8,1,48)
        367         23          6 -5.21504740E-02                    1_GWF-(20,1,25)  1.38438361E-03                     1_GWF-(34,1,3)
        368         23          7 -2.55930866E-02                    1_GWF-(21,1,25)  1.34779775E-03                    1_GWF-(20,1,43)
        369         23          8     -0.40684824                    1_GWF-(21,1,25) -2.59407881E-03                     1_GWF-(9,1,49)
        370         23          9      0.30409945                    1_GWF-(21,1,25)  2.85039519E-04                     1_GWF-(36,1,2)
        371         23         10 -6.49409121E-03                    1_GWF-(32,1,22)  1.79713106E-04                    1_GWF-(26,1,33)
        372         24          1      -1.1804001                     1_GWF-(7,1,48)     -0.13228476                     1_GWF-(8,1,48)
        373         24          2     -0.22160528                    1_GWF-(14,1,37) -4.31026720E-02                    1_GWF-(10,1,48)
        374         24          3      0.13189370                    1_GWF-(20,1,44) -4.25434080E-02                    1_GWF-(10,1,48)
        375         24          4       1.4041605                    1_GWF-(16,1,34)     -0.32587640                    1_GWF-(10,1,48)
        376         24          5      -1.6274383                    1_GWF-(16,1,34)  2.29656121E-03                     1_GWF-(8,1,48)
        377         24          6 -3.95289189E-02                    1_GWF-(20,1,25)  1.04743038E-03                     1_GWF-(34,1,3)
        378         24          7 -1.93442465E-02                    1_GWF-(21,1,25)  1.01933179E-03                    1_GWF-(20,1,43)
        379         24          8     -0.29879869                    1_GWF-(21,1,25) -1.87805626E-03                     1_GWF-(9,1,49)
        380         24          9      0.22082864                    1_GWF-(21,1,25)  2.16197963E-04                     1_GWF-(36,1,2)
        381         24         10 -5.03354368E-03                    1_GWF-(32,1,22)  1.38593983E-04                    1_GWF-(26,1,33)
        382         25          1     -0.88542548                     1_GWF-(7,1,48) -9.92414702E-02                     1_GWF-(8,1,48)
        383         25          2     -0.16631362                    1_GWF-(14,1,37) -3.23585372E-02                    1_GWF-(10,1,48)
        384         25          3  9.88279003E-02                    1_GWF-(20,1,44) -3.19562107E-02                    1_GWF-(10,1,48)
        385         25          4       1.0575882                    1_GWF-(16,1,34)     -0.24455703                    1_GWF-(10,1,48)
        386         25          5      -1.2259088                    1_GWF-(16,1,34)  1.72355986E-03                     1_GWF-(8,1,48)
        387         25          6 -2.99591663E-02                    1_GWF-(20,1,25)  7.92438466E-04                     1_GWF-(34,1,3)
        388         25          7 -1.46074859E-02                    1_GWF-(21,1,25)  7.70683980E-04                    1_GWF-(20,1,43)
        389         25          8     -0.21917972                    1_GWF-(21,1,25) -1.35730620E-03                     1_GWF-(9,1,49)
        390         25          9      0.16000833                    1_GWF-(21,1,25)  1.63970956E-04                     1_GWF-(36,1,2)
        391         25         10 -3.89854792E-03                    1_GWF-(32,1,22)  1.04918286E-04                    1_GWF-(26,1,33)
        392         26          1     -0.66416418                     1_GWF-(7,1,48) -7.44525334E-02                     1_GWF-(8,1,48)
        393         26          2     -0.12481642                    1_GWF-(14,1,37) -2.42932319E-02                    1_GWF-(10,1,48)
        394         26          3  7.40288215E-02                    1_GWF-(20,1,44) -2.40049116E-02                    1_GWF-(10,1,48)
        395         26          4      0.79742109                    1_GWF-(16,1,34)     -0.18371900                    1_GWF-(10,1,48)
        396         26          5     -0.92431256                    1_GWF-(16,1,34)  1.29365575E-03                     1_GWF-(8,1,48)
        397         26          6 -2.27041216E-02                    1_GWF-(20,1,25)  5.99485368E-04                     1_GWF-(34,1,3)
        398         26          7 -1.10187895E-02                    1_GWF-(21,1,25)  5.82431817E-04                    1_GWF-(20,1,43)
        399         26          8     -0.16057092                    1_GWF-(21,1,25) -9.79096907E-04                     1_GWF-(9,1,49)
        400         26          9      0.11565957                    1_GWF-(21,1,25)  1.24321789E-04                     1_GWF-(36,1,2)
        401         26         10 -3.01452168E-03                    1_GWF-(32,1,22)  7.79648957E-05                    1_GWF-(26,1,33)
        402         27          1     -0.49819494                     1_GWF-(7,1,48) -5.58556544E-02                     1_GWF-(8,1,48)
        403         27          2 -9.36726778E-02                    1_GWF-(14,1,37) -1.82384543E-02                    1_GWF-(10,1,48)
        404         27          3  5.54341560E-02                    1_GWF-(20,1,44) -1.80329956E-02                    1_GWF-(10,1,48)
        405         27          4      0.60204401                    1_GWF-(16,1,34)     -0.13818490                    1_GWF-(10,1,48)
        406         27          5     -0.69770419                    1_GWF-(16,1,34)  9.71064215E-04                     1_GWF-(8,1,48)
        407         27          6 -1.72045359E-02                    1_GWF-(20,1,25)  4.53487774E-04                     1_GWF-(34,1,3)
        408         27          7 -8.30213280E-03                    1_GWF-(21,1,25)  4.39904749E-04                    1_GWF-(20,1,43)
        409         28          1     -0.37372813                     1_GWF-(7,1,48) -4.16815788E-02                     1_GWF-(8,1,48)
        410         28          2 -7.09582406E-02                    1_GWF-(14,1,37) -1.34465557E-02                    1_GWF-(10,1,48)
        411         28          3  4.19259791E-02                    1_GWF-(20,1,44) -1.34813074E-02                    1_GWF-(10,1,48)
        412         28          4      0.51569834                    1_GWF-(16,1,34)     -0.11225879                    1_GWF-(10,1,48)
        413         28          5     -0.58990888                    1_GWF-(16,1,34)  7.33367786E-04                     1_GWF-(8,1,48)
        414         28          6 -1.38566029E-02                    1_GWF-(20,1,25)  3.60525249E-04                     1_GWF-(34,1,3)
        415         28          7 -6.73811445E-03                    1_GWF-(21,1,25)  3.45739677E-04                    1_GWF-(20,1,43)
        416         29          1     -0.28038245                     1_GWF-(7,1,48) -3.11119939E-02                     1_GWF-(8,1,48)
        417         29          2 -5.38051843E-02                    1_GWF-(14,1,37) -9.88886814E-03                    1_GWF-(10,1,48)
        418         29          3  3.16594935E-02                    1_GWF-(20,1,44) -1.00804499E-02                    1_GWF-(10,1,48)
        419         29          4      0.49548412                    1_GWF-(16,1,34)     -0.10117954                    1_GWF-(10,1,48)
        420         29          5     -0.55313051                    1_GWF-(16,1,34)  5.50146334E-04                     1_GWF-(8,1,48)
        421         29          6 -1.11844716E-02                    1_GWF-(20,1,25)  2.86639582E-04                     1_GWF-(34,1,3)
        422         29          7 -5.44764692E-03                    1_GWF-(21,1,25)  2.72233941E-04                    1_GWF-(20,1,43)
        423         30          1     -0.21037093                     1_GWF-(7,1,48) -2.32282563E-02                     1_GWF-(8,1,48)
        424         30          2 -4.08444020E-02                    1_GWF-(14,1,37) -7.24985574E-03                    1_GWF-(10,1,48)
        425         30          3  2.38640148E-02                    1_GWF-(20,1,44) -7.53539576E-03                    1_GWF-(10,1,48)
        426         30          4      0.61416004                    1_GWF-(16,1,34)     -0.11608247                    1_GWF-(10,1,48)
        427         30          5     -0.65898566                    1_GWF-(16,1,34)  4.09886312E-04                     1_GWF-(8,1,48)
        428         30          6 -9.05230012E-03                    1_GWF-(20,1,25)  2.27976662E-04                     1_GWF-(34,1,3)
        429         31          1     -0.15793861                     1_GWF-(7,1,48) -1.74183886E-02                     1_GWF-(8,1,48)
        430         31          2 -3.09058507E-02                    1_GWF-(14,1,37) -5.45760464E-03                    1_GWF-(10,1,48)
        431         31          3  1.79135073E-02                    1_GWF-(20,1,44) -5.68838753E-03                    1_GWF-(10,1,48)
        432         31          4      0.44084811                    1_GWF-(17,1,32) -8.03629262E-02                    1_GWF-(10,1,48)
        433         31          5     -0.47617208                    1_GWF-(17,1,32)  3.24992168E-04                     1_GWF-(8,1,48)
        434         31          6 -7.37125571E-03                    1_GWF-(21,1,25)  1.83729011E-04                     1_GWF-(34,1,3)
        435         32          1     -0.11858302                     1_GWF-(7,1,48) -1.30613443E-02                     1_GWF-(8,1,48)
        436         32          2 -2.34010051E-02                    1_GWF-(14,1,37) -4.10796128E-03                    1_GWF-(10,1,48)
        437         32          3  1.34504890E-02                    1_GWF-(20,1,44) -4.29602523E-03                    1_GWF-(10,1,48)
        438         32          4      0.32351932                    1_GWF-(17,1,32)  5.76957637E-02                    1_GWF-(20,1,43)
        439         32          5     -0.35151904                    1_GWF-(17,1,32)  2.57627282E-04                     1_GWF-(8,1,48)
        440         32          6 -6.00503572E-03                    1_GWF-(21,1,25)  1.48090051E-04                     1_GWF-(34,1,3)
        441         33          1 -8.90409065E-02                     1_GWF-(7,1,48) -9.79380885E-03                     1_GWF-(8,1,48)
        442         33          2 -1.77307606E-02                    1_GWF-(14,1,37) -3.09164666E-03                    1_GWF-(10,1,48)
        443         33          3  1.01030065E-02                    1_GWF-(20,1,44) -3.24602714E-03                    1_GWF-(10,1,48)
        444         33          4      0.24142863                    1_GWF-(17,1,32)  4.22232980E-02                    1_GWF-(20,1,43)
        445         33          5     -0.26366854                    1_GWF-(17,1,32)  2.04179931E-04                     1_GWF-(8,1,48)
        446         33          6 -4.89271185E-03                    1_GWF-(21,1,25)  1.19361399E-04                     1_GWF-(34,1,3)
        447         34          1 -6.68637589E-02                     1_GWF-(7,1,48) -7.34333949E-03                     1_GWF-(8,1,48)
        448         34          2 -1.34441390E-02                    1_GWF-(14,1,37) -2.32636303E-03                    1_GWF-(10,1,48)
        449         34          3  7.59206178E-03                    1_GWF-(20,1,44) -2.45391021E-03                    1_GWF-(10,1,48)
        450         35          1 -4.94440588E-02                     1_GWF-(7,1,48) -5.58831357E-03                     1_GWF-(8,1,48)
        451         35          2 -1.04796840E-02                    1_GWF-(14,1,37) -1.71505702E-03                    1_GWF-(10,1,48)
        452         35          3 -5.08809174E-03                    1_GWF-(18,1,30)  7.24675712E-04                     1_GWF-(9,1,47)
        453         36          1 -3.70676719E-02                     1_GWF-(7,1,48) -4.23093354E-03                     1_GWF-(8,1,48)
        454         36          2 -8.00350085E-03                    1_GWF-(14,1,37) -1.34743228E-03                    1_GWF-(10,1,48)
        455         37          1 -2.83724509E-02                     1_GWF-(7,1,48) -4.05756952E-03                     1_GWF-(8,1,48)
        456         37          2 -6.30708892E-03                    1_GWF-(24,1,36) -1.10933321E-03                    1_GWF-(10,1,48)
        457         38          1 -2.11766544E-02                     1_GWF-(8,1,48) -3.21836310E-03                     1_GWF-(8,1,48)
        458         38          2 -4.98038714E-03                    1_GWF-(14,1,37) -7.48686809E-04                    1_GWF-(10,1,48)
        459         39          1 -1.59939275E-02                     1_GWF-(8,1,48) -2.45574437E-03                     1_GWF-(8,1,48)
        460         39          2 -4.13271000E-03                    1_GWF-(14,1,38) -4.94408825E-04                     1_GWF-(7,1,48)
        461         40          1 -1.20926898E-02                     1_GWF-(8,1,48) -1.83863573E-03                     1_GWF-(8,1,48)
        462         40          2 -3.46643312E-03                    1_GWF-(14,1,38)  3.69169575E-04                     1_GWF-(9,1,47)
        463         41          1 -9.18102094E-03                     1_GWF-(8,1,48) -1.36542887E-03                     1_GWF-(8,1,48)
 --------------------------------------------------------------------------------------------------------------------------------------


 UBDSV1 SAVING     FLOW-JA-FACE ON UNIT   1019 AT TIME STEP      1, STRESS PERIOD      1
 UBDSV06 SAVING       DATA-SPDIS IN MODEL RL               PACKAGE NPF             CONNECTED TO MODEL RL               PACKAGE NPF              ON UNIT   1019 AT TIME STEP      1, STRESS PERIOD      1
 UBDSV06 SAVING              CHD IN MODEL RL               PACKAGE RL              CONNECTED TO MODEL RL               PACKAGE CHD_0            ON UNIT   1019 AT TIME STEP      1, STRESS PERIOD      1
1
  HEAD IN LAYER   1 AT END OF TIME STEP   1 IN STRESS PERIOD    1
  ---------------------------------------------------------------------------

            1           2           3           4           5           6           7           8           9          10
           11          12          13          14          15          16          17          18          19          20
           21          22          23          24          25          26          27          28          29          30
           31          32          33          34          35          36          37          38          39          40
           41          42          43          44          45          46          47          48          49          50
 ........................................................................................................................
   1   -493.7      -511.0      -528.3      -545.6      -562.9      -580.3      -597.6      -614.9      -632.2      -649.5    
       -666.9      -684.2      -701.5      -718.8      -736.1      -753.5      -770.8      -788.1      -805.4      -822.7    
       -840.1      -857.4      -874.7      -892.0      -909.4      -926.7      -944.0      -961.3      -978.6      -996.0    
       -1013.      -1031.      -1048.      -1065.      -1083.      -1100.      -1117.      -1135.      -1152.      -1169.    
       -1186.      -1204.      -1221.      -1238.      -1256.      -1273.      -1290.      -1308.      -1325.      -1342.    
1
  HEAD IN LAYER   2 AT END OF TIME STEP   1 IN STRESS PERIOD    1
  ---------------------------------------------------------------------------

            1           2           3           4           5           6           7           8           9          10
           11          12          13          14          15          16          17          18          19          20
           21          22          23          24          25          26          27          28          29          30
           31          32          33          34          35          36          37          38          39          40
           41          42          43          44          45          46          47          48          49          50
 ........................................................................................................................
   1   -483.7      -501.0      -518.3      -535.6      -552.9      -570.3      -587.6      -604.9      -622.2      -639.5    
       -656.9      -674.2      -691.5      -708.8      -726.1      -743.5      -760.8      -778.1      -795.4      -812.7    
       -830.1      -847.4      -864.7      -882.0      -899.4      -916.7      -934.0      -951.3      -968.7      -986.0    
       -1003.      -1021.      -1038.      -1055.      -1073.      -1090.      -1107.      -1125.      -1142.      -1159.    
       -1176.      -1194.      -1211.      -1228.      -1245.      -1263.      -1280.      -1297.      -1315.      -1332.    
1
  HEAD IN LAYER   3 AT END OF TIME STEP   1 IN STRESS PERIOD    1
  ---------------------------------------------------------------------------

            1           2           3           4           5           6           7           8           9          10
           11          12          13          14          15          16          17          18          19          20
           21          22          23          24          25          26          27          28          29          30
           31          32          33          34          35          36          37          38          39          40
           41          42          43          44          45          46          47          48          49          50
 ........................................................................................................................
   1   -473.7      -491.0      -508.3      -525.6      -542.9      -560.2      -577.6      -594.9      -612.2      -629.5    
       -646.9      -664.2      -681.5      -698.8      -716.1      -733.5      -750.8      -768.1      -785.4      -802.7    
       -820.1      -837.4      -854.7      -872.0      -889.4      -906.7      -924.0      -941.3      -958.7      -976.0    
       -993.3      -1011.      -1028.      -1045.      -1063.      -1080.      -1097.      -1115.      -1132.      -1149.    
       -1166.      -1183.      -1201.      -1218.      -1235.      -1252.      -1270.      -1287.      -1305.      -1322.    
1
  HEAD IN LAYER   4 AT END OF TIME STEP   1 IN STRESS PERIOD    1
  ---------------------------------------------------------------------------

            1           2           3           4           5           6           7           8           9          10
           11          12          13          14          15          16          17          18          19          20
           21          22          23          24          25          26          27          28          29          30
           31          32          33          34          35          36          37          38          39          40
           41          42          43          44          45          46          47          48          49          50
 ........................................................................................................................
   1   -463.7      -481.0      -498.3      -515.6      -532.9      -550.2      -567.6      -584.9      -602.2      -619.5    
       -636.8      -654.2      -671.5      -688.8      -706.1      -723.5      -740.8      -758.1      -775.4      -792.7    
       -810.1      -827.4      -844.7      -862.0      -879.3      -896.7      -914.0      -931.3      -948.7      -966.0    
       -983.4      -1001.      -1018.      -1035.      -1053.      -1070.      -1087.      -1105.      -1122.      -1139.    
       -1156.      -1173.      -1190.      -1207.      -1225.      -1242.      -1260.      -1277.      -1294.      -1312.    
1
  HEAD IN LAYER   5 AT END OF TIME STEP   1 IN STRESS PERIOD    1
  ---------------------------------------------------------------------------

            1           2           3           4           5           6           7           8           9          10
           11          12          13          14          15          16          17          18          19          20
           21          22          23          24          25          26          27          28          29          30
           31          32          33          34          35          36          37          38          39          40
           41          42          43          44          45          46          47          48          49          50
 ........................................................................................................................
   1   -453.7      -471.0      -488.3      -505.6      -522.9      -540.2      -557.6      -574.9      -592.2      -609.5    
       -626.8      -644.2      -661.5      -678.8      -696.1      -713.5      -730.8      -748.1      -765.4      -782.7    
       -800.1      -817.4      -834.7      -852.0      -869.3      -886.7      -904.0      -921.3      -938.7      -956.0    
       -973.4      -990.8      -1008.      -1026.      -1043.      -1060.      -1078.      -1095.      -1112.      -1129.    
       -1146.      -1163.      -1180.      -1197.      -1214.      -1232.      -1250.      -1267.      -1281.      -1302.    
1
  HEAD IN LAYER   6 AT END OF TIME STEP   1 IN STRESS PERIOD    1
  ---------------------------------------------------------------------------

            1           2           3           4           5           6           7           8           9          10
           11          12          13          14          15          16          17          18          19          20
           21          22          23          24          25          26          27          28          29          30
           31          32          33          34          35          36          37          38          39          40
           41          42          43          44          45          46          47          48          49          50
 ........................................................................................................................
[...]
       -816.8      -834.1      -851.3      -868.6      -885.9      -903.2      -920.5      -937.8      -955.1      -972.4    
1
  HEAD IN LAYER  39 AT END OF TIME STEP   1 IN STRESS PERIOD    1
  ---------------------------------------------------------------------------

            1           2           3           4           5           6           7           8           9          10
           11          12          13          14          15          16          17          18          19          20
           21          22          23          24          25          26          27          28          29          30
           31          32          33          34          35          36          37          38          39          40
           41          42          43          44          45          46          47          48          49          50
 ........................................................................................................................
   1   -113.7      -131.0      -148.3      -165.6      -182.7      -199.6      -216.4      -232.4      -247.5      -259.1    
       -269.5      -298.3      -323.0      -337.7      -355.5      -372.4      -390.1      -408.3      -426.2      -443.9    
       -461.5      -478.8      -496.2      -513.5      -530.8      -548.1      -565.4      -582.7      -599.9      -617.2    
       -634.4      -651.6      -668.9      -686.1      -703.3      -720.5      -737.8      -755.0      -772.3      -789.5    
       -806.8      -824.1      -841.3      -858.6      -875.9      -893.2      -910.5      -927.8      -945.1      -962.4    
1
  HEAD IN LAYER  40 AT END OF TIME STEP   1 IN STRESS PERIOD    1
  ---------------------------------------------------------------------------

            1           2           3           4           5           6           7           8           9          10
           11          12          13          14          15          16          17          18          19          20
           21          22          23          24          25          26          27          28          29          30
           31          32          33          34          35          36          37          38          39          40
           41          42          43          44          45          46          47          48          49          50
 ........................................................................................................................
   1   -103.7      -121.0      -138.2      -155.3      -172.3      -189.2      -206.4      -221.8      -238.4      -246.8    
       -269.7      -290.2      -310.4      -327.9      -345.5      -362.9      -380.5      -398.2      -416.0      -433.6    
       -451.1      -468.6      -485.9      -503.3      -520.6      -537.9      -555.2      -572.5      -589.8      -607.0    
       -624.3      -641.5      -658.8      -676.0      -693.2      -710.5      -727.7      -745.0      -762.2      -779.5    
       -796.8      -814.0      -831.3      -848.6      -865.9      -883.2      -900.5      -917.8      -935.1      -952.4    
1
  HEAD IN LAYER  41 AT END OF TIME STEP   1 IN STRESS PERIOD    1
  ---------------------------------------------------------------------------

            1           2           3           4           5           6           7           8           9          10
           11          12          13          14          15          16          17          18          19          20
           21          22          23          24          25          26          27          28          29          30
           31          32          33          34          35          36          37          38          39          40
           41          42          43          44          45          46          47          48          49          50
 ........................................................................................................................
   1   -93.66      -111.1      -128.3      -145.1      -162.8      -179.6      -198.8      -208.8      -231.4      -251.4    
       -265.0      -282.3      -300.4      -318.1      -335.6      -353.1      -370.6      -388.2      -405.9      -423.4    
       -440.9      -458.3      -475.7      -493.1      -510.4      -527.7      -545.0      -562.3      -579.6      -596.9    
       -614.2      -631.4      -648.7      -665.9      -683.2      -700.4      -717.7      -735.0      -752.2      -769.5    
       -786.8      -804.0      -821.3      -838.6      -855.9      -873.2      -890.5      -907.8      -925.1      -942.4    
1
  HEAD IN LAYER  42 AT END OF TIME STEP   1 IN STRESS PERIOD    1
  ---------------------------------------------------------------------------

            1           2           3           4           5           6           7           8           9          10
           11          12          13          14          15          16          17          18          19          20
           21          22          23          24          25          26          27          28          29          30
           31          32          33          34          35          36          37          38          39          40
           41          42          43          44          45          46          47          48          49          50
 ........................................................................................................................
   1   -83.66      -101.4      -118.0      -133.5      -153.9      -164.6      -190.2      -211.7      -224.7      -241.0    
       -256.7      -273.5      -290.9      -308.3      -325.8      -343.2      -360.7      -378.3      -395.8      -413.3    
       -430.7      -448.2      -465.6      -482.9      -500.3      -517.6      -534.9      -552.2      -569.5      -586.8    
       -604.0      -621.3      -638.6      -655.8      -673.1      -690.4      -707.6      -724.9      -742.2      -759.5    
       -776.7      -794.0      -811.3      -828.6      -845.9      -863.2      -880.5      -897.8      -915.1      -932.4    
1
  HEAD IN LAYER  43 AT END OF TIME STEP   1 IN STRESS PERIOD    1
  ---------------------------------------------------------------------------

            1           2           3           4           5           6           7           8           9          10
           11          12          13          14          15          16          17          18          19          20
           21          22          23          24          25          26          27          28          29          30
           31          32          33          34          35          36          37          38          39          40
           41          42          43          44          45          46          47          48          49          50
 ........................................................................................................................
   1   -73.66      -89.58      -102.0      -112.9      -142.3      -167.4      -181.8      -199.0      -214.7      -231.0    
       -247.4      -264.2      -281.3      -298.6      -316.0      -333.4      -350.8      -368.3      -385.7      -403.2    
       -420.6      -438.0      -455.4      -472.8      -490.1      -507.4      -524.8      -542.1      -559.4      -576.7    
       -593.9      -611.2      -628.5      -645.8      -663.0      -680.3      -697.6      -714.9      -732.1      -749.4    
       -766.7      -784.0      -801.3      -818.6      -835.9      -853.2      -870.5      -887.8      -905.1      -922.4    
1
  HEAD IN LAYER  44 AT END OF TIME STEP   1 IN STRESS PERIOD    1
  ---------------------------------------------------------------------------

            1           2           3           4           5           6           7           8           9          10
           11          12          13          14          15          16          17          18          19          20
           21          22          23          24          25          26          27          28          29          30
           31          32          33          34          35          36          37          38          39          40
           41          42          43          44          45          46          47          48          49          50
 ........................................................................................................................
   1   -63.66      -81.16      -89.66      -112.7      -133.1      -153.3      -170.6      -187.7      -204.3      -220.9    
       -237.6      -254.5      -271.6      -288.8      -306.1      -323.5      -340.9      -358.3      -375.7      -393.1    
       -410.5      -427.9      -445.3      -462.6      -480.0      -497.3      -514.6      -531.9      -549.2      -566.5    
       -583.8      -601.1      -618.4      -635.7      -653.0      -670.3      -687.5      -704.8      -722.1      -739.4    
       -756.7      -774.0      -791.3      -808.6      -825.9      -843.2      -860.5      -877.8      -895.1      -912.4    
1
  HEAD IN LAYER  45 AT END OF TIME STEP   1 IN STRESS PERIOD    1
  ---------------------------------------------------------------------------

            1           2           3           4           5           6           7           8           9          10
           11          12          13          14          15          16          17          18          19          20
           21          22          23          24          25          26          27          28          29          30
           31          32          33          34          35          36          37          38          39          40
           41          42          43          44          45          46          47          48          49          50
 ........................................................................................................................
   1   -53.66      -73.54      -93.28      -106.8      -124.1      -142.2      -159.7      -176.9      -193.8      -210.7    
       -227.6      -244.6      -261.7      -278.9      -296.2      -313.5      -330.9      -348.3      -365.7      -383.0    
       -400.4      -417.8      -435.2      -452.5      -469.9      -487.2      -504.5      -521.8      -539.1      -556.4    
       -573.7      -591.0      -608.3      -625.6      -642.9      -660.2      -677.5      -694.8      -712.1      -729.4    
       -746.7      -763.9      -781.2      -798.5      -815.8      -833.1      -850.5      -867.8      -885.1      -902.4    
1
  HEAD IN LAYER  46 AT END OF TIME STEP   1 IN STRESS PERIOD    1
  ---------------------------------------------------------------------------

            1           2           3           4           5           6           7           8           9          10
           11          12          13          14          15          16          17          18          19          20
           21          22          23          24          25          26          27          28          29          30
           31          32          33          34          35          36          37          38          39          40
           41          42          43          44          45          46          47          48          49          50
 ........................................................................................................................
   1   -43.66      -62.36      -80.54      -97.04      -114.2      -131.7      -149.1      -166.3      -183.4      -200.5    
       -217.5      -234.6      -251.8      -269.0      -286.2      -303.6      -320.9      -338.2      -355.6      -373.0    
       -390.3      -407.7      -425.1      -442.4      -459.7      -477.1      -494.4      -511.7      -529.0      -546.3    
       -563.6      -580.9      -598.2      -615.5      -632.8      -650.1      -667.4      -684.7      -702.0      -719.3    
       -736.6      -753.9      -771.2      -788.5      -805.8      -823.1      -840.4      -857.8      -875.1      -892.4    
1
  HEAD IN LAYER  47 AT END OF TIME STEP   1 IN STRESS PERIOD    1
  ---------------------------------------------------------------------------

            1           2           3           4           5           6           7           8           9          10
           11          12          13          14          15          16          17          18          19          20
           21          22          23          24          25          26          27          28          29          30
           31          32          33          34          35          36          37          38          39          40
           41          42          43          44          45          46          47          48          49          50
 ........................................................................................................................
   1   -33.66      -51.71      -69.46      -86.69      -103.9      -121.3      -138.6      -155.9      -173.1      -190.2    
       -207.4      -224.5      -241.7      -259.0      -276.3      -293.6      -310.9      -328.2      -345.6      -362.9    
       -380.3      -397.6      -415.0      -432.3      -449.6      -467.0      -484.3      -501.6      -518.9      -536.2    
       -553.5      -570.9      -588.2      -605.5      -622.8      -640.1      -657.4      -674.7      -692.0      -709.3    
       -726.6      -743.9      -761.2      -778.5      -795.8      -813.1      -830.4      -847.7      -865.1      -882.4    
1
  HEAD IN LAYER  48 AT END OF TIME STEP   1 IN STRESS PERIOD    1
  ---------------------------------------------------------------------------

            1           2           3           4           5           6           7           8           9          10
           11          12          13          14          15          16          17          18          19          20
           21          22          23          24          25          26          27          28          29          30
           31          32          33          34          35          36          37          38          39          40
           41          42          43          44          45          46          47          48          49          50
 ........................................................................................................................
   1   -23.66      -41.36      -58.92      -76.29      -93.61      -110.9      -128.3      -145.5      -162.8      -180.0    
       -197.2      -214.4      -231.7      -248.9      -266.2      -283.5      -300.9      -318.2      -335.5      -352.9    
       -370.2      -387.5      -404.9      -422.2      -439.5      -456.9      -474.2      -491.5      -508.8      -526.1    
       -543.5      -560.8      -578.1      -595.4      -612.7      -630.0      -647.3      -664.6      -681.9      -699.2    
       -716.6      -733.9      -751.2      -768.5      -785.8      -803.1      -820.4      -837.7      -855.1      -872.4    
1
  HEAD IN LAYER  49 AT END OF TIME STEP   1 IN STRESS PERIOD    1
  ---------------------------------------------------------------------------

            1           2           3           4           5           6           7           8           9          10
           11          12          13          14          15          16          17          18          19          20
           21          22          23          24          25          26          27          28          29          30
           31          32          33          34          35          36          37          38          39          40
           41          42          43          44          45          46          47          48          49          50
 ........................................................................................................................
   1   -13.66      -31.14      -48.58      -65.94      -83.27      -100.6      -117.9      -135.2      -152.5      -169.8    
       -187.0      -204.3      -221.6      -238.9      -256.2      -273.5      -290.8      -308.2      -325.5      -342.8    
       -360.1      -377.5      -394.8      -412.1      -429.4      -446.8      -464.1      -481.4      -498.7      -516.0    
       -533.4      -550.7      -568.0      -585.3      -602.6      -619.9      -637.3      -654.6      -671.9      -689.2    
       -706.5      -723.8      -741.1      -758.5      -775.8      -793.1      -810.4      -827.7      -845.0      -862.4    
1
  HEAD IN LAYER  50 AT END OF TIME STEP   1 IN STRESS PERIOD    1
  ---------------------------------------------------------------------------

            1           2           3           4           5           6           7           8           9          10
           11          12          13          14          15          16          17          18          19          20
           21          22          23          24          25          26          27          28          29          30
           31          32          33          34          35          36          37          38          39          40
           41          42          43          44          45          46          47          48          49          50
 ........................................................................................................................
   1   -3.660      -20.98      -38.30      -55.62      -72.94      -90.26      -107.6      -124.9      -142.2      -159.5    
       -176.9      -194.2      -211.5      -228.8      -246.1      -263.5      -280.8      -298.1      -315.4      -332.7    
       -350.1      -367.4      -384.7      -402.0      -419.4      -436.7      -454.0      -471.3      -488.6      -506.0    
       -523.3      -540.6      -557.9      -575.2      -592.6      -609.9      -627.2      -644.5      -661.8      -679.2    
       -696.5      -713.8      -731.1      -748.4      -765.8      -783.1      -800.4      -817.7      -835.0      -852.4    

 HEAD WILL BE SAVED ON UNIT 1020 AT END OF TIME STEP    1, STRESS PERIOD    1


  VOLUME BUDGET FOR ENTIRE MODEL AT END OF TIME STEP    1, STRESS PERIOD   1
  ---------------------------------------------------------------------------------------------------

     CUMULATIVE VOLUME      L**3       RATES FOR THIS TIME STEP      L**3/T          PACKAGE NAME    
     ------------------                 ------------------------                     ----------------

           IN:                                      IN:
           ---                                      ---
                 CHD =         184.2338                   CHD =         184.2338     CHD_0                            

            TOTAL IN =         184.2338              TOTAL IN =         184.2338

          OUT:                                     OUT:
          ----                                     ----
                 CHD =         184.2429                   CHD =         184.2429     CHD_0                            

           TOTAL OUT =         184.2429             TOTAL OUT =         184.2429

            IN - OUT =      -9.0303E-03              IN - OUT =      -9.0303E-03

 PERCENT DISCREPANCY =          -0.00     PERCENT DISCREPANCY =          -0.00




         TIME SUMMARY AT END OF TIME STEP    1 IN STRESS PERIOD    1
                    SECONDS     MINUTES      HOURS       DAYS        YEARS
                    -----------------------------------------------------------
   TIME STEP LENGTH  86400.      1440.0      24.000      1.0000     2.73785E-03
 STRESS PERIOD TIME  86400.      1440.0      24.000      1.0000     2.73785E-03
         TOTAL TIME  86400.      1440.0      24.000      1.0000     2.73785E-03


end timestep

