                                   MODFLOW 6
                U.S. GEOLOGICAL SURVEY MODULAR HYDROLOGIC MODEL
                          GROUNDWATER FLOW MODEL (GWF)
                            VERSION 6.3.0 03/04/2022

   MODFLOW 6 compiled Mar 02 2022 15:29:04 with Intel(R) Fortran Intel(R) 64
   Compiler Classic for applications running on Intel(R) 64, Version 2021.5.0
                             Build 20211109_000000

This software has been approved for release by the U.S. Geological 
Survey (USGS). Although the software has been subjected to rigorous 
review, the USGS reserves the right to update the software as needed 
pursuant to further analysis and review. No warranty, expressed or 
implied, is made by the USGS or the U.S. Government as to the 
functionality of the software and related material nor shall the 
fact of release constitute any such warranty. Furthermore, the 
software is released on condition that neither the USGS nor the U.S. 
Government shall be held liable for any damages resulting from its 
authorized or unauthorized use. Also refer to the USGS Water 
Resources Software User Rights Notice for complete use, copyright, 
and distribution information.


As a work of the United States Government, this USGS product is 
in the public domain within the United States. You can copy, 
modify, distribute, and perform the work, even for commercial 
purposes, all without asking permission. Additionally, USGS 
waives copyright and related rights in the work worldwide 
through CC0 1.0 Universal Public Domain Dedication 
(https://creativecommons.org/publicdomain/zero/1.0/).

The following GNU Lesser General Public License (LGPL) libraries
are used in this USGS product:

    SPARSKIT version 2.0
      ilut, luson, and qsplit 
      (https://www-users.cse.umn.edu/~saad/software/SPARSKIT/)

    RCM - Reverse Cuthill McKee Ordering
      (https://people.math.sc.edu/Burkardt/f_src/rcm/rcm.html)

    BLAS - Basic Linear Algebra Subprograms Level 1
      (https://people.math.sc.edu/Burkardt/f_src/blas1_d/blas1_d.html)

    SPARSEKIT - Sparse Matrix Utility Package
      amux, dperm, dvperm, rperm, and cperm
      (https://people.sc.fsu.edu/~jburkardt/f77_src/sparsekit/sparsekit.html)

The following BSD-3 License libraries are used in this USGS product:

    Modern Fortran DAG Library
      Copyright (c) 2018, Jacob Williams
      All rights reserved.
      (https://github.com/jacobwilliams/daglib)

MODFLOW 6 compiler options: /Isrc\libmf6core.a.p /Isrc /I..\src
/Isrc\libmf6_external.a.p /MTd /nologo /warn:general /warn:truncated_source
/stand:f08 /Zi /traceback /O2 /Zi /fpe:0 /fpp /Qdiag-disable:7416
/Qdiag-disable:7025 /Qdiag-disable:5268
/Fdsrc\libmf6core.a.p\Utilities_compilerversion.F90.pdb
/module:src\libmf6core.a.p
/Fosrc/libmf6core.a.p/Utilities_compilerversion.F90.obj /c

System command used to initiate simulation:
./bin/mf6

MODFLOW was compiled using uniform precision.

Real Variables
  KIND: 8
  TINY (smallest non-zero value):    2.225074-308
  HUGE (largest value):    1.797693+308
  PRECISION: 15
  BIT SIZE: 64

Integer Variables
  KIND: 4
  HUGE (largest value): 2147483647
  BIT SIZE: 32

Long Integer Variables
  KIND: 8
  HUGE (largest value): 9223372036854775807
  BIT SIZE: 64

Logical Variables
  KIND: 4
  BIT SIZE: 32
 

 OPENED VO.disu
 FILE TYPE:DISU6                  UNIT 1012   STATUS:OLD                 
 FORMAT:FORMATTED              ACCESS:SEQUENTIAL          
 ACTION:READ                


 OPENED VO.ic
 FILE TYPE:IC6                    UNIT 1013   STATUS:OLD                 
 FORMAT:FORMATTED              ACCESS:SEQUENTIAL          
 ACTION:READ                


 OPENED VO.chd
 FILE TYPE:CHD6                   UNIT 1014   STATUS:OLD                 
 FORMAT:FORMATTED              ACCESS:SEQUENTIAL          
 ACTION:READ                


 OPENED VO.npf
 FILE TYPE:NPF6                   UNIT 1015   STATUS:OLD                 
 FORMAT:FORMATTED              ACCESS:SEQUENTIAL          
 ACTION:READ                


 OPENED VO.oc
 FILE TYPE:OC6                    UNIT 1016   STATUS:OLD                 
 FORMAT:FORMATTED              ACCESS:SEQUENTIAL          
 ACTION:READ                

 NAMEFILE OPTIONS:
    FLOWS WILL BE SAVED TO BUDGET FILE SPECIFIED IN OUTPUT CONTROL

 DISU -- UNSTRUCTURED GRID DISCRETIZATION PACKAGE, VERSION 2 : 3/27/2014 - INPUT READ FROM UNIT 1012


 # File generated by Flopy version 3.3.6 on 09/09/2022 at 13:29:33.
 PROCESSING DISCRETIZATION OPTIONS
    VERTICAL OFFSET TOLERANCE SPECIFIED AS     0.00000000000000    
 END OF DISCRETIZATION OPTIONS
 MODEL LENGTH UNIT IS UNDEFINED
 PROCESSING DISCRETIZATION DIMENSIONS
    NODES = 1650
    NJA   = 11220
   NVERT = 102
   VERTICES AND CELL2D BLOCKS WILL BE READ BELOW. 
 END OF DISCRETIZATION OPTIONS
 PROCESSING GRIDDATA
 END PROCESSING GRIDDATA
 PROCESSING CONNECTIONDATA
 END PROCESSING CONNECTIONDATA

 PROCESSING VERTICES
   SUCCESSFULLY READ 102 (X,Y) COORDINATES
   MINIMUM X COORDINATE =     0.00000000000000    
   MAXIMUM X COORDINATE =     1000.00000000000    
   MINIMUM Y COORDINATE =     0.00000000000000    
   MAXIMUM Y COORDINATE =     1.00000000000000    
 END PROCESSING VERTICES

 PROCESSING CELL2D
   SUCCESSFULLY READ 1650 CELL2D INFORMATION ENTRIES
   MINIMUM X CELL CENTER =     10.0000000000000    
   MAXIMUM X CELL CENTER =     990.000000000000    
   MINIMUM Y CELL CENTER =    0.500000000000000    
   MAXIMUM Y CELL CENTER =    0.500000000000000    
   MAXIMUM NUMBER OF CELL2D VERTICES IS 5 FOR CELL 1
 END PROCESSING VERTICES

 NPF -- NODE PROPERTY FLOW PACKAGE, VERSION 1, 3/30/2015 INPUT READ FROM UNIT 1015


 # File generated by Flopy version 3.3.6 on 09/09/2022 at 13:29:34.
 PROCESSING NPF OPTIONS
    CELL-BY-CELL FLOW INFORMATION WILL BE SAVED TO BINARY FILE WHENEVER ICBCFL IS NOT ZERO.
    XT3D FORMULATION IS SELECTED.
    SPECIFIC DISCHARGE WILL BE CALCULATED AT CELL CENTERS AND WRITTEN TO DATA-SPDIS IN BUDGET FILE WHEN REQUESTED.
 END OF NPF OPTIONS

 CHD   -- CHD PACKAGE, VERSION 8, 2/22/2014 INPUT READ FROM UNIT 1014
 # File generated by Flopy version 3.3.6 on 09/09/2022 at 13:29:34.

 PROCESSING CHD OPTIONS
 END OF CHD OPTIONS

 PROCESSING CHD DIMENSIONS
    MAXBOUND =     162
 END OF CHD DIMENSIONS

 IC -- INITIAL CONDITIONS PACKAGE, VERSION 8, 3/28/2015 INPUT READ FROM UNIT 1013
 # File generated by Flopy version 3.3.6 on 09/09/2022 at 13:29:34.
 PROCESSING GRIDDATA

     INITIAL HEAD =  -500.0000    
 END PROCESSING GRIDDATA
 PROCESSING GRIDDATA

                ICELLTYPE = 0

                   ANGLE1 =   0.000000    

                   ANGLE2 =   30.00000    

                   ANGLE3 =   0.000000    
 END PROCESSING GRIDDATA

 XT3D is active.


    BINARY GRID INFORMATION WILL BE WRITTEN TO:
      UNIT NUMBER: 1021
      FILE NAME: C:\Users\aprovost\Documents\ACTIVE\xt3d-vertically-staggered paper\python\transect_benchmark\VO.disu.grb

 OPENED C:\Users\aprovost\Documents\ACTIVE\xt3d-vertically-staggered paper\python\transect_benchmark\VO.disu.grb
 FILE TYPE:DATA(BINARY)   UNIT 1021   STATUS:REPLACE             
 FORMAT:UNFORMATTED            ACCESS:STREAM              
 ACTION:READWRITE           

      THE LAST TIME STEP WILL BE PRINTED
      THE LAST TIME STEP WILL BE PRINTED
 # File generated by Flopy version 3.3.6 on 09/09/2022 at 13:29:34.

 PROCESSING OC OPTIONS

    BUDGET INFORMATION WILL BE WRITTEN TO:
      UNIT NUMBER: 1022
      FILE NAME: VO.cbb

 OPENED VO.cbb
 FILE TYPE:DATA(BINARY)   UNIT 1022   STATUS:REPLACE             
 FORMAT:UNFORMATTED            ACCESS:STREAM              
 ACTION:READWRITE           

    HEAD INFORMATION WILL BE WRITTEN TO:
      UNIT NUMBER: 1023
      FILE NAME: VO.hds

 OPENED VO.hds
 FILE TYPE:DATA(BINARY)   UNIT 1023   STATUS:REPLACE             
 FORMAT:UNFORMATTED            ACCESS:STREAM              
 ACTION:READWRITE           

 END OF OC OPTIONS

start timestep kper="1" kstp="1" mode="normal"


 BEGIN READING OUTPUT CONTROL FOR STRESS PERIOD 1
      ALL TIME STEPS WILL BE SAVED
      ALL TIME STEPS WILL BE SAVED
      ALL TIME STEPS WILL BE PRINTED

 END READING OUTPUT CONTROL FOR STRESS PERIOD 1

 SLN_1 INNER ITERATION SUMMARY
 --------------------------------------------------------------------------------------------------------------------------------------
      TOTAL      OUTER      INNER                                                            MAXIMUM                                   
  ITERATION  ITERATION  ITERATION  MAXIMUM CHANGE      MAXIMUM CHANGE MODEL-(CELLID)        RESIDUAL    MAXIMUM RESIDUAL MODEL-(CELLID)
 --------------------------------------------------------------------------------------------------------------------------------------
          1          1          1      -834.70350                         2_GWF-(99)      -52.987864                        2_GWF-(698)
          2          1          2      -74.462032                       2_GWF-(1137)      -27.641756                        2_GWF-(698)
          3          1          3       1.8827924                       2_GWF-(1122)      -27.749545                        2_GWF-(698)
          4          1          4       730.47761                       2_GWF-(1131)      -214.90821                        2_GWF-(698)
          5          1          5      -843.16291                       2_GWF-(1131)     -0.93100148                        2_GWF-(699)
          6          1          6      -12.031717                       2_GWF-(1072)      0.41824468                        2_GWF-(748)
          7          1          7      -3.8619102                       2_GWF-(1025)      0.14706923                        2_GWF-(748)
          8          1          8      -51.251987                       2_GWF-(1073)     -0.77602534                        2_GWF-(698)
          9          1          9       40.809615                       2_GWF-(1073) -4.25722120E-02                       2_GWF-(1002)
         10          1         10       1.9496442                       2_GWF-(1074) -1.72980851E-02                        2_GWF-(949)
         11          1         11     -0.43909627                       2_GWF-(1113) -3.03338551E-02                        2_GWF-(699)
         12          1         12      0.84324577                       2_GWF-(1113) -4.78664366E-03                        2_GWF-(849)
         13          1         13  2.76981460E-02                       2_GWF-(1024) -4.42072573E-03                        2_GWF-(849)
         14          1         14      0.47222771                       2_GWF-(1073) -7.97649631E-04                       2_GWF-(1098)
         15          1         15      0.13115939                        2_GWF-(678) -6.41745229E-03                       2_GWF-(1057)
         16          1         16     -0.17192586                        2_GWF-(678)  3.92519875E-04                       2_GWF-(1098)
         17          1         17 -3.63253546E-03                       2_GWF-(1108)  2.07487615E-04                       2_GWF-(1098)
         18          1         18 -1.56062508E-03                       2_GWF-(1108)  1.36805560E-04                       2_GWF-(1098)
         19          1         19 -1.59050775E-03                        2_GWF-(579) -2.91733542E-05                        2_GWF-(899)
         20          1         20 -8.74978432E-04                        2_GWF-(577) -2.76540007E-05                        2_GWF-(748)
         21          1         21  9.38258523E-04                        2_GWF-(629) -4.46878202E-06                        2_GWF-(899)
         22          1         22  6.65622830E-05                       2_GWF-(1075) -3.63802828E-06                        2_GWF-(899)
         23          2          1      -626.02762                         2_GWF-(99)      -39.740898                        2_GWF-(698)
         24          2          2      -55.846523                       2_GWF-(1137)      -20.731316                        2_GWF-(698)
         25          2          3       1.4120948                       2_GWF-(1122)      -20.812159                        2_GWF-(698)
         26          2          4       547.85656                       2_GWF-(1131)      -161.18074                        2_GWF-(698)
         27          2          5      -632.37054                       2_GWF-(1131)     -0.69825227                        2_GWF-(699)
         28          2          6      -9.0237817                       2_GWF-(1072)      0.31368374                        2_GWF-(748)
         29          2          7      -2.8964300                       2_GWF-(1025)      0.11030195                        2_GWF-(748)
         30          2          8      -38.438896                       2_GWF-(1073)     -0.58201722                        2_GWF-(698)
         31          2          9       30.607119                       2_GWF-(1073) -3.19290205E-02                       2_GWF-(1002)
         32          2         10       1.4622304                       2_GWF-(1074) -1.29734908E-02                        2_GWF-(949)
         33          2         11     -0.32932432                       2_GWF-(1113) -2.27500621E-02                        2_GWF-(699)
         34          2         12      0.63244583                       2_GWF-(1113) -3.58992515E-03                        2_GWF-(849)
         35          2         13  2.07487359E-02                       2_GWF-(1024) -3.31559412E-03                        2_GWF-(849)
         36          2         14      0.35415305                       2_GWF-(1073) -5.98014946E-04                       2_GWF-(1098)
         37          2         15  9.83300688E-02                        2_GWF-(678) -4.81291428E-03                       2_GWF-(1057)
         38          2         16     -0.12889693                        2_GWF-(678)  2.94332297E-04                       2_GWF-(1098)
         39          2         17 -2.72734421E-03                       2_GWF-(1108)  1.55585352E-04                       2_GWF-(1098)
         40          2         18 -1.17021639E-03                       2_GWF-(1108)  1.02599701E-04                       2_GWF-(1098)
         41          2         19 -1.19438061E-03                        2_GWF-(579) -2.18732348E-05                        2_GWF-(899)
         42          2         20 -6.57759424E-04                        2_GWF-(577) -2.07487110E-05                        2_GWF-(748)
         43          2         21  7.04171165E-04                        2_GWF-(629) -3.34817122E-06                        2_GWF-(899)
         44          3          1      -469.52072                         2_GWF-(99)      -29.805673                        2_GWF-(698)
         45          3          2      -41.884900                       2_GWF-(1137)      -15.548483                        2_GWF-(698)
         46          3          3       1.0590752                       2_GWF-(1122)      -15.609118                        2_GWF-(698)
         47          3          4       410.89127                       2_GWF-(1131)      -120.88526                        2_GWF-(698)
         48          3          5      -474.27675                       2_GWF-(1131)     -0.52369039                        2_GWF-(699)
         49          3          6      -6.7678291                       2_GWF-(1072)      0.23526296                        2_GWF-(748)
         50          3          7      -2.1723199                       2_GWF-(1025)  8.27264665E-02                        2_GWF-(748)
         51          3          8      -28.829049                       2_GWF-(1073)     -0.43651056                        2_GWF-(698)
         52          3          9       22.955220                       2_GWF-(1073) -2.39466331E-02                       2_GWF-(1002)
         53          3         10       1.0966636                       2_GWF-(1074) -9.72997994E-03                        2_GWF-(949)
         54          3         11     -0.24699328                       2_GWF-(1113) -1.70618818E-02                        2_GWF-(699)
         55          3         12      0.47434615                       2_GWF-(1113) -2.69240648E-03                        2_GWF-(849)
         56          3         13  1.55307681E-02                       2_GWF-(1024) -2.48679084E-03                        2_GWF-(849)
         57          3         14      0.26560052                       2_GWF-(1073) -4.48253891E-04                       2_GWF-(1098)
         58          3         15  7.36865735E-02                        2_GWF-(678) -3.60869470E-03                       2_GWF-(1057)
         59          3         16 -9.66031726E-02                        2_GWF-(678)  2.20679956E-04                       2_GWF-(1098)
         60          3         17 -2.04870758E-03                       2_GWF-(1108)  1.16650467E-04                       2_GWF-(1098)
         61          3         18 -8.77333599E-04                       2_GWF-(1108)  7.69410911E-05                       2_GWF-(1098)
         62          4          1      -352.14053                         2_GWF-(99)      -22.354253                        2_GWF-(698)
         63          4          2      -31.413663                       2_GWF-(1137)      -11.661359                        2_GWF-(698)
         64          4          3      0.79429898                       2_GWF-(1122)      -11.706834                        2_GWF-(698)
         65          4          4       308.15524                       2_GWF-(1131)      -90.660598                        2_GWF-(698)
         66          4          5      -355.69434                       2_GWF-(1131)     -0.39277472                        2_GWF-(699)
         67          4          6      -5.0758308                       2_GWF-(1072)      0.17644819                        2_GWF-(748)
         68          4          7      -1.6292074                       2_GWF-(1025)  6.20461669E-02                        2_GWF-(748)
         69          4          8      -21.621088                       2_GWF-(1073)     -0.32737381                        2_GWF-(698)
         70          4          9       17.215714                       2_GWF-(1073) -1.79595886E-02                       2_GWF-(1002)
         71          4         10      0.82250662                       2_GWF-(1074) -7.29740728E-03                        2_GWF-(949)
         72          4         11     -0.18523981                       2_GWF-(1113) -1.27953307E-02                        2_GWF-(699)
         73          4         12      0.35579731                       2_GWF-(1113) -2.01877889E-03                        2_GWF-(849)
         74          4         13  1.14935926E-02                       2_GWF-(1024) -1.86523028E-03                        2_GWF-(849)
         75          4         14      0.19909305                       2_GWF-(1073) -3.34950587E-04                       2_GWF-(1098)
         76          4         15  5.50409827E-02                        2_GWF-(678) -2.70585129E-03                       2_GWF-(1057)
         77          4         16 -7.21810071E-02                        2_GWF-(678)  1.65221448E-04                       2_GWF-(1098)
         78          4         17 -1.55426106E-03                       2_GWF-(1108)  8.73382801E-05                       2_GWF-(1098)
         79          4         18 -6.56791735E-04                       2_GWF-(1108)  5.76930120E-05                       2_GWF-(1098)
         80          5          1      -264.10539                         2_GWF-(99)      -16.765688                        2_GWF-(698)
         81          5          2      -23.560239                       2_GWF-(1137)      -8.7460175                        2_GWF-(698)
         82          5          3      0.59571865                       2_GWF-(1122)      -8.7801220                        2_GWF-(698)
         83          5          4       231.10650                       2_GWF-(1131)      -67.992933                        2_GWF-(698)
         84          5          5      -266.76083                       2_GWF-(1131)     -0.29458624                        2_GWF-(699)
         85          5          6      -3.8068421                       2_GWF-(1072)      0.13233686                        2_GWF-(748)
         86          5          7      -1.2218811                       2_GWF-(1025)  4.65356122E-02                        2_GWF-(748)
         87          5          8      -16.215292                       2_GWF-(1073)     -0.24552353                        2_GWF-(698)
         88          5          9       12.911261                       2_GWF-(1073) -1.34693999E-02                       2_GWF-(1002)
         89          5         10      0.61688656                       2_GWF-(1074) -5.47299590E-03                        2_GWF-(949)
         90          5         11     -0.13892604                       2_GWF-(1113) -9.59568437E-03                        2_GWF-(699)
         91          5         12      0.26687636                       2_GWF-(1113) -1.51368980E-03                        2_GWF-(849)
         92          5         13  8.50297370E-03                       2_GWF-(1024) -1.39902357E-03                        2_GWF-(849)
         93          5         14      0.14924011                       2_GWF-(1073) -2.50279946E-04                       2_GWF-(1098)
         94          5         15  4.11124370E-02                        2_GWF-(678) -2.02884693E-03                       2_GWF-(1057)
         95          5         16 -5.39317714E-02                        2_GWF-(678)  1.23698431E-04                       2_GWF-(1098)
         96          5         17 -1.17902651E-03                       2_GWF-(1108)  6.53907414E-05                       2_GWF-(1098)
         97          5         18 -4.91672400E-04                       2_GWF-(1108)  4.32594783E-05                       2_GWF-(1098)
         98          6          1      -198.07904                         2_GWF-(99)      -12.574265                        2_GWF-(698)
         99          6          2      -17.670172                       2_GWF-(1137)      -6.5595115                        2_GWF-(698)
        100          6          3      0.44678477                       2_GWF-(1122)      -6.5850889                        2_GWF-(698)
        101          6          4       173.32242                       2_GWF-(1131)      -50.992811                        2_GWF-(698)
        102          6          5      -200.06317                       2_GWF-(1131)     -0.22094358                        2_GWF-(699)
        103          6          6      -2.8551082                       2_GWF-(1072)  9.92531876E-02                        2_GWF-(748)
        104          6          7     -0.91639242                       2_GWF-(1025)  3.49024487E-02                        2_GWF-(748)
        105          6          8      -12.161076                       2_GWF-(1073)     -0.18413753                        2_GWF-(698)
        106          6          9       9.6830516                       2_GWF-(1073) -1.01018299E-02                       2_GWF-(1002)
        107          6         10      0.46266979                       2_GWF-(1074) -4.10470127E-03                        2_GWF-(949)
        108          6         11     -0.10419170                       2_GWF-(1113) -7.19615070E-03                        2_GWF-(699)
        109          6         12      0.20017863                       2_GWF-(1113) -1.13497166E-03                        2_GWF-(849)
        110          6         13  6.28827209E-03                       2_GWF-(1024) -1.04934175E-03                        2_GWF-(849)
        111          6         14      0.11187098                       2_GWF-(1073) -1.87007903E-04                       2_GWF-(1098)
        112          6         15  3.07078530E-02                        2_GWF-(678) -1.52119944E-03                       2_GWF-(1057)
        113          6         16 -4.02955053E-02                        2_GWF-(678)  9.26096268E-05                       2_GWF-(1098)
        114          6         17 -8.94291477E-04                       2_GWF-(1108)  4.89577326E-05                       2_GWF-(1098)
        115          7          1      -148.55927                         2_GWF-(99)      -9.4306991                        2_GWF-(698)
        116          7          2      -13.252619                       2_GWF-(1137)      -4.9196342                        2_GWF-(698)
        117          7          3      0.33509278                       2_GWF-(1122)      -4.9388193                        2_GWF-(698)
        118          7          4       129.98950                       2_GWF-(1131)      -38.244057                        2_GWF-(698)
        119          7          5      -150.04506                       2_GWF-(1131)     -0.16571052                        2_GWF-(699)
        120          7          6      -2.1413154                       2_GWF-(1072)  7.44404254E-02                        2_GWF-(748)
        121          7          7     -0.68728239                       2_GWF-(1025)  2.61772625E-02                        2_GWF-(748)
        122          7          8      -9.1201946                       2_GWF-(1073)     -0.13809330                        2_GWF-(698)
        123          7          9       7.2616642                       2_GWF-(1073) -7.57666176E-03                       2_GWF-(1002)
        124          7         10      0.34702252                       2_GWF-(1074) -3.07873473E-03                        2_GWF-(949)
        125          7         11 -7.81621454E-02                       2_GWF-(1113) -5.39805725E-03                        2_GWF-(699)
        126          7         12      0.15015110                       2_GWF-(1113) -8.51327371E-04                        2_GWF-(849)
        127          7         13  4.75178078E-03                       2_GWF-(1024) -7.86955685E-04                        2_GWF-(849)
        128          7         14  8.39138341E-02                       2_GWF-(1073) -1.40484077E-04                       2_GWF-(1098)
        129          7         15  2.30653406E-02                        2_GWF-(678) -1.14084566E-03                       2_GWF-(1057)
        130          7         16 -3.02641307E-02                        2_GWF-(678)  6.95038097E-05                       2_GWF-(1098)
        131          7         17 -6.67067684E-04                       2_GWF-(1108)  3.67423618E-05                       2_GWF-(1098)
        132          8          1      -111.41945                         2_GWF-(99)      -7.0730244                        2_GWF-(698)
        133          8          2      -9.9394566                       2_GWF-(1137)      -3.6897261                        2_GWF-(698)
        134          8          3      0.25132275                       2_GWF-(1122)      -3.7041165                        2_GWF-(698)
        135          8          4       97.490387                       2_GWF-(1131)      -28.682631                        2_GWF-(698)
        136          8          5      -112.53206                       2_GWF-(1131)     -0.12428502                        2_GWF-(699)
        137          8          6      -1.6059747                       2_GWF-(1072)  5.58307201E-02                        2_GWF-(748)
        138          8          7     -0.51545287                       2_GWF-(1025)  1.96332671E-02                        2_GWF-(748)
        139          8          8      -6.8396874                       2_GWF-(1073)     -0.10356260                        2_GWF-(698)
        140          8          9       5.4457803                       2_GWF-(1073) -5.68271231E-03                       2_GWF-(1002)
        141          8         10      0.26028198                       2_GWF-(1074) -2.30920697E-03                        2_GWF-(949)
        142          8         11 -5.86353732E-02                       2_GWF-(1113) -4.04924863E-03                        2_GWF-(699)
        143          8         12      0.11262618                       2_GWF-(1113) -6.38569271E-04                        2_GWF-(849)
        144          8         13  3.59024437E-03                       2_GWF-(1024) -5.90178798E-04                        2_GWF-(849)
        145          8         14  6.29433996E-02                       2_GWF-(1073) -1.05533120E-04                       2_GWF-(1098)
        146          8         15  1.73246759E-02                        2_GWF-(678) -8.55589670E-04                       2_GWF-(1057)
        147          8         16 -2.27297687E-02                        2_GWF-(678)  5.21625157E-05                       2_GWF-(1098)
        148          8         17 -4.97578540E-04                       2_GWF-(1108)  2.75746482E-05                       2_GWF-(1098)
        149          9          1      -83.564580                         2_GWF-(99)      -5.3047683                        2_GWF-(698)
        150          9          2      -7.4545867                       2_GWF-(1137)      -2.7672949                        2_GWF-(698)
        151          9          3      0.18849445                       2_GWF-(1122)      -2.7780889                        2_GWF-(698)
        152          9          4       73.116493                       2_GWF-(1131)      -21.511665                        2_GWF-(698)
        153          9          5      -84.397750                       2_GWF-(1131) -9.32153584E-02                        2_GWF-(699)
        154          9          6      -1.2044722                       2_GWF-(1072)  4.18733410E-02                        2_GWF-(748)
        155          9          7     -0.38658296                       2_GWF-(1025)  1.47251909E-02                        2_GWF-(748)
        156          9          8      -5.1294220                       2_GWF-(1073) -7.76664218E-02                        2_GWF-(698)
        157          9          9       4.0839848                       2_GWF-(1073) -4.26219546E-03                       2_GWF-(1002)
        158          9         10      0.19522276                       2_GWF-(1074) -1.73202168E-03                        2_GWF-(949)
        159          9         11 -4.39868411E-02                       2_GWF-(1113) -3.03746388E-03                        2_GWF-(699)
        160          9         12  8.44792824E-02                       2_GWF-(1113) -4.78982094E-04                        2_GWF-(849)
        161          9         13  2.71228836E-03                       2_GWF-(1024) -4.42605629E-04                        2_GWF-(849)
        162          9         14  4.72136209E-02                       2_GWF-(1073) -7.92766048E-05                       2_GWF-(1098)
        163          9         15  1.30126352E-02                        2_GWF-(678) -6.41655769E-04                       2_GWF-(1057)
        164          9         16 -1.70709266E-02                        2_GWF-(678)  3.91476704E-05                       2_GWF-(1098)
        165          9         17 -3.71154162E-04                       2_GWF-(1108)  2.06942681E-05                       2_GWF-(1098)
        166         10          1      -62.673432                         2_GWF-(99)      -3.9785763                        2_GWF-(698)
        167         10          2      -5.5909358                       2_GWF-(1137)      -2.0754715                        2_GWF-(698)
        168         10          3      0.14137264                       2_GWF-(1122)      -2.0835678                        2_GWF-(698)
        169         10          4       54.836400                       2_GWF-(1131)      -16.133519                        2_GWF-(698)
        170         10          5      -63.297345                       2_GWF-(1131) -6.99127154E-02                        2_GWF-(699)
        171         10          6     -0.90334756                       2_GWF-(1072)  3.14052314E-02                        2_GWF-(748)
        172         10          7     -0.28993220                       2_GWF-(1025)  1.10440740E-02                        2_GWF-(748)
        173         10          8      -3.8468092                       2_GWF-(1073) -5.82456766E-02                        2_GWF-(698)
        174         10          9       3.0627260                       2_GWF-(1073) -3.19676695E-03                       2_GWF-(1002)
        175         10         10      0.14642550                       2_GWF-(1074) -1.29910324E-03                        2_GWF-(949)
        176         10         11 -3.29978554E-02                       2_GWF-(1113) -2.27849209E-03                        2_GWF-(699)
        177         10         12  6.33667053E-02                       2_GWF-(1113) -3.59277801E-04                        2_GWF-(849)
        178         10         13  2.04877172E-03                       2_GWF-(1024) -3.31932876E-04                        2_GWF-(849)
        179         10         14  3.54148072E-02                       2_GWF-(1073) -5.95519460E-05                       2_GWF-(1098)
        180         10         15  9.77372995E-03                        2_GWF-(678) -4.81212216E-04                       2_GWF-(1057)
        181         10         16 -1.28207813E-02                        2_GWF-(678)  2.93799350E-05                       2_GWF-(1098)
        182         10         17 -2.76852219E-04                       2_GWF-(1108)  1.55305695E-05                       2_GWF-(1098)
        183         11          1      -47.005071                         2_GWF-(99)      -2.9839322                        2_GWF-(698)
        184         11          2      -4.1931987                       2_GWF-(1137)      -1.5566038                        2_GWF-(698)
        185         11          3      0.10603084                       2_GWF-(1122)      -1.5626767                        2_GWF-(698)
        186         11          4       41.126575                       2_GWF-(1131)      -12.099967                        2_GWF-(698)
        187         11          5      -47.472285                       2_GWF-(1131) -5.24354340E-02                        2_GWF-(699)
        188         11          6     -0.67750574                       2_GWF-(1072)  2.35540928E-02                        2_GWF-(748)
        189         11          7     -0.21744539                       2_GWF-(1025)  8.28319137E-03                        2_GWF-(748)
        190         11          8      -2.8849141                       2_GWF-(1073) -4.36811564E-02                        2_GWF-(698)
        191         11          9       2.2968478                       2_GWF-(1073) -2.39766506E-03                       2_GWF-(1002)
        192         11         10      0.10982543                       2_GWF-(1074) -9.74392394E-04                        2_GWF-(949)
        193         11         11 -2.47541784E-02                       2_GWF-(1113) -1.70916369E-03                        2_GWF-(699)
        194         11         12  4.75304663E-02                       2_GWF-(1113) -2.69489182E-04                        2_GWF-(849)
        195         11         13  1.54738615E-03                       2_GWF-(1024) -2.48933654E-04                        2_GWF-(849)
        196         11         14  2.65645763E-02                       2_GWF-(1073) -4.47343964E-05                       2_GWF-(1098)
        197         11         15  7.34091881E-03                        2_GWF-(678) -3.60885298E-04                       2_GWF-(1057)
        198         11         16 -9.62869133E-03                        2_GWF-(678)  2.20492227E-05                       2_GWF-(1098)
        199         11         17 -2.06510760E-04                       2_GWF-(1108)  1.16552595E-05                       2_GWF-(1098)
        200         12          1      -35.253801                         2_GWF-(99)      -2.2379492                        2_GWF-(698)
        201         12          2      -3.1448966                       2_GWF-(1137)      -1.1674530                        2_GWF-(698)
        202         12          3  7.95241513E-02                       2_GWF-(1122)      -1.1720082                        2_GWF-(698)
        203         12          4       30.844390                       2_GWF-(1131)      -9.0748464                        2_GWF-(698)
        204         12          5      -35.603673                       2_GWF-(1131) -3.93272486E-02                        2_GWF-(699)
        205         12          6     -0.50812561                       2_GWF-(1072)  1.76656966E-02                        2_GWF-(748)
        206         12          7     -0.16308123                       2_GWF-(1025)  6.21249563E-03                        2_GWF-(748)
        207         12          8      -2.1635412                       2_GWF-(1073) -3.27585442E-02                        2_GWF-(698)
        208         12          9       1.7224885                       2_GWF-(1073) -1.79831587E-03                       2_GWF-(1002)
        209         12         10  8.23737801E-02                       2_GWF-(1074) -7.30842818E-04                        2_GWF-(949)
        210         12         11 -1.85699691E-02                       2_GWF-(1113) -1.28209296E-03                        2_GWF-(699)
        211         12         12  3.56519313E-02                       2_GWF-(1113) -2.02139942E-04                        2_GWF-(849)
        212         12         13  1.16856470E-03                       2_GWF-(1024) -1.86688244E-04                        2_GWF-(849)
        213         13          1      -26.440357                         2_GWF-(99)      -1.6784682                        2_GWF-(698)
        214         13          2      -2.3584751                       2_GWF-(1137)     -0.87558794                        2_GWF-(698)
        215         13          3  5.95964501E-02                       2_GWF-(1122)     -0.87899360                        2_GWF-(698)
        216         13          4       23.120263                       2_GWF-(1131)      -6.8043387                        2_GWF-(698)
        217         13          5      -26.688680                       2_GWF-(1131) -2.94945858E-02                        2_GWF-(699)
        218         13          6     -0.38085259                       2_GWF-(1072)  1.32479716E-02                        2_GWF-(748)
        219         13          7     -0.12225217                       2_GWF-(1025)  4.65678809E-03                        2_GWF-(748)
        220         13          8      -1.6243913                       2_GWF-(1073) -2.46114718E-02                        2_GWF-(698)
        221         13          9       1.2939977                       2_GWF-(1073) -1.34392719E-03                       2_GWF-(1002)
        222         13         10  6.15728223E-02                       2_GWF-(1074) -5.45418820E-04                        2_GWF-(949)
        223         13         11 -1.38945377E-02                       2_GWF-(1113) -9.52329017E-04                        2_GWF-(699)
        224         13         12  2.68406836E-02                       2_GWF-(1113) -1.50338560E-04                        2_GWF-(849)
        225         13         13  2.70245427E-04                        2_GWF-(726) -1.40584836E-04                        2_GWF-(849)
        226         13         14  1.47583391E-02                       2_GWF-(1073) -2.69988602E-05                       2_GWF-(1057)
        227         13         15  3.74485564E-03                        2_GWF-(627) -2.03941250E-04                       2_GWF-(1057)
        228         13         16 -4.95061713E-03                        2_GWF-(627)  1.13347356E-05                       2_GWF-(1098)
        229         13         17 -1.73610631E-04                       2_GWF-(1108)  5.99804622E-06                       2_GWF-(1098)
        230         14          1      -19.830267                         2_GWF-(99)      -1.2588512                        2_GWF-(698)
        231         14          2      -1.7688543                       2_GWF-(1137)     -0.65669111                        2_GWF-(698)
        232         14          3  4.46976942E-02                       2_GWF-(1122)     -0.65924553                        2_GWF-(698)
        233         14          4       17.339845                       2_GWF-(1131)      -5.1031731                        2_GWF-(698)
        234         14          5      -20.016156                       2_GWF-(1131) -2.21213128E-02                        2_GWF-(699)
        235         14          6     -0.28563675                       2_GWF-(1072)  9.93604821E-03                        2_GWF-(748)
        236         14          7 -9.16874293E-02                       2_GWF-(1025)  3.49263783E-03                        2_GWF-(748)
        237         14          8      -1.2182053                       2_GWF-(1073) -1.84571866E-02                        2_GWF-(698)
        238         14          9      0.97040876                       2_GWF-(1073) -1.00799651E-03                       2_GWF-(1002)
        239         14         10  4.61828971E-02                       2_GWF-(1074) -4.09099832E-04                        2_GWF-(949)
        240         14         11 -1.04236562E-02                       2_GWF-(1113) -7.14406231E-04                        2_GWF-(699)
        241         14         12  2.01327102E-02                       2_GWF-(1113) -1.12770526E-04                        2_GWF-(849)
        242         14         13  2.03023917E-04                        2_GWF-(726) -1.05436039E-04                        2_GWF-(849)
        243         15          1      -14.872705                         2_GWF-(99)     -0.94414372                        2_GWF-(698)
        244         15          2      -1.3265281                       2_GWF-(1137)     -0.49251775                        2_GWF-(698)
        245         15          3  3.34830068E-02                       2_GWF-(1122)     -0.49442132                        2_GWF-(698)
        246         15          4       12.997321                       2_GWF-(1131)      -3.8263500                        2_GWF-(698)
        247         15          5      -15.003910                       2_GWF-(1131) -1.65890001E-02                        2_GWF-(699)
        248         15          6     -0.21408748                       2_GWF-(1072)  7.45096195E-03                        2_GWF-(748)
        249         15          7 -6.87373511E-02                       2_GWF-(1025)  2.61769879E-03                        2_GWF-(748)
        250         15          8     -0.91532788                       2_GWF-(1073) -1.38789892E-02                        2_GWF-(698)
        251         15          9      0.72973384                       2_GWF-(1073) -7.52584306E-04                       2_GWF-(1002)
        252         15         10  3.44849426E-02                       2_GWF-(1074) -3.04861538E-04                        2_GWF-(949)
        253         15         11 -7.79399554E-03                       2_GWF-(1113) -5.29285265E-04                        2_GWF-(699)
        254         15         12  1.51653329E-02                       2_GWF-(1113) -8.38314966E-05                        2_GWF-(849)
        255         15         13 -9.84093159E-04                       2_GWF-(1024) -8.79834473E-05                       2_GWF-(1002)
        256         15         14  8.89385922E-03                       2_GWF-(1024) -1.71971471E-05                       2_GWF-(1057)
        257         15         15 -2.73707179E-03                       2_GWF-(1109) -1.10343173E-04                       2_GWF-(1057)
        258         15         16  3.44877107E-03                       2_GWF-(1109)  6.28561522E-06                       2_GWF-(1056)
        259         15         17 -1.28424163E-04                       2_GWF-(1108)  2.94013957E-06                       2_GWF-(1098)
        260         16          1      -11.154528                         2_GWF-(99)     -0.70810782                        2_GWF-(698)
        261         16          2     -0.99489458                       2_GWF-(1137)     -0.36938844                        2_GWF-(698)
        262         16          3  2.51122516E-02                       2_GWF-(1122)     -0.37081613                        2_GWF-(698)
        263         16          4       9.7477597                       2_GWF-(1131)      -2.8697107                        2_GWF-(698)
        264         16          5      -11.252699                       2_GWF-(1131) -1.24419579E-02                        2_GWF-(699)
        265         16          6     -0.16056371                       2_GWF-(1072)  5.58825954E-03                        2_GWF-(748)
        266         16          7 -5.15519842E-02                       2_GWF-(1025)  1.96329409E-03                        2_GWF-(748)
        267         16          8     -0.68644165                       2_GWF-(1073) -1.04083717E-02                        2_GWF-(698)
        268         16          9      0.54724542                       2_GWF-(1073) -5.64479014E-04                       2_GWF-(1002)
        269         16         10  2.58661091E-02                       2_GWF-(1074) -2.28673558E-04                        2_GWF-(949)
        270         16         11 -5.84721584E-03                       2_GWF-(1113) -3.97080872E-04                        2_GWF-(699)
        271         16         12  1.13750641E-02                       2_GWF-(1113) -6.28851848E-05                        2_GWF-(849)
        272         16         13 -7.02670717E-04                       2_GWF-(1024) -6.52158702E-05                       2_GWF-(1002)
        273         16         14  6.64110918E-03                       2_GWF-(1024) -1.28734457E-05                       2_GWF-(1057)
        274         16         15 -2.04717111E-03                       2_GWF-(1109) -8.28966690E-05                       2_GWF-(1057)
        275         16         16  2.57695840E-03                       2_GWF-(1109)  4.71347467E-06                       2_GWF-(1056)
        276         16         17 -9.59994818E-05                       2_GWF-(1108)  2.21077148E-06                       2_GWF-(1098)
        277         17          1      -8.3658958                         2_GWF-(99)     -0.53108089                        2_GWF-(698)
        278         17          2     -0.74616980                       2_GWF-(1137)     -0.27704143                        2_GWF-(698)
        279         17          3  1.88341905E-02                       2_GWF-(1122)     -0.27811220                        2_GWF-(698)
        280         17          4       7.3106476                       2_GWF-(1131)      -2.1522444                        2_GWF-(698)
        281         17          5      -8.4393504                       2_GWF-(1131) -9.33162429E-03                        2_GWF-(699)
        282         17          6     -0.12042136                       2_GWF-(1072)  4.19122323E-03                        2_GWF-(748)
        283         17          7 -3.86632172E-02                       2_GWF-(1025)  1.47248566E-03                        2_GWF-(748)
        284         17          8     -0.51479060                       2_GWF-(1073) -7.80562717E-03                        2_GWF-(698)
        285         17          9      0.41039291                       2_GWF-(1073) -4.23389623E-04                       2_GWF-(1002)
        286         17         10  1.94013728E-02                       2_GWF-(1074) -1.71525585E-04                        2_GWF-(949)
        287         17         11 -4.38670064E-03                       2_GWF-(1113) -2.97897923E-04                        2_GWF-(699)
        288         17         12  8.53210121E-03                       2_GWF-(1113) -4.71725415E-05                        2_GWF-(849)
        289         17         13 -5.01774800E-04                       2_GWF-(1024) -4.83626867E-05                       2_GWF-(1002)
        290         17         14  4.96018184E-03                       2_GWF-(1024) -9.63678647E-06                       2_GWF-(1057)
        291         17         15 -1.53112429E-03                       2_GWF-(1109) -6.22757923E-05                       2_GWF-(1057)
        292         17         16  1.92547522E-03                       2_GWF-(1109)  3.53439766E-06                       2_GWF-(1056)
        293         17         17 -7.17583149E-05                       2_GWF-(1108)  1.66230012E-06                       2_GWF-(1098)
        294         18          1      -6.2744217                         2_GWF-(99)     -0.39831069                        2_GWF-(698)
        295         18          2     -0.55962651                       2_GWF-(1137)     -0.20778115                        2_GWF-(698)
        296         18          3  1.41256475E-02                       2_GWF-(1122)     -0.20858424                        2_GWF-(698)
        297         18          4       5.4828574                       2_GWF-(1131)      -1.6141545                        2_GWF-(698)
        298         18          5      -6.3293831                       2_GWF-(1131) -6.99883510E-03                        2_GWF-(699)
        299         18          6 -9.03149540E-02                       2_GWF-(1072)  3.14343886E-03                        2_GWF-(748)
        300         18          7 -2.89968353E-02                       2_GWF-(1025)  1.10437562E-03                        2_GWF-(748)
        301         18          8     -0.38606252                       2_GWF-(1073) -5.85373240E-03                        2_GWF-(698)
        302         18          9      0.30776386                       2_GWF-(1073) -3.17564821E-04                       2_GWF-(1002)
        303         18         10  1.45523649E-02                       2_GWF-(1074) -1.28659399E-04                        2_GWF-(949)
        304         18         11 -3.29099153E-03                       2_GWF-(1113) -2.23488577E-04                        2_GWF-(699)
        305         18         12  6.39968186E-03                       2_GWF-(1113) -3.53858810E-05                        2_GWF-(849)
        306         18         13 -3.58327111E-04                       2_GWF-(1024) -3.58806288E-05                       2_GWF-(1002)
        307         19          1      -4.7058193                         2_GWF-(99)     -0.29873644                        2_GWF-(698)
        308         19          2     -0.41968327                       2_GWF-(1137)     -0.15583595                        2_GWF-(698)
        309         19          3  1.05679320E-02                       2_GWF-(1122)     -0.15642839                        2_GWF-(698)
        310         19          4       4.1095867                       2_GWF-(1131)      -1.2102870                        2_GWF-(698)
        311         19          5      -4.7442197                       2_GWF-(1131) -5.24670176E-03                        2_GWF-(699)
        312         19          6 -6.76894547E-02                       2_GWF-(1072)  2.35687208E-03                        2_GWF-(748)
        313         19          7 -2.17451706E-02                       2_GWF-(1025)  8.27296874E-04                        2_GWF-(748)
        314         19          8     -0.29082436                       2_GWF-(1073) -4.41447734E-03                        2_GWF-(698)
        315         19          9      0.23221281                       2_GWF-(1073) -2.36362432E-04                       2_GWF-(1002)
        316         19         10  1.08301337E-02                       2_GWF-(1074) -9.54289673E-05                        2_GWF-(949)
        317         19         11 -2.45430685E-03                       2_GWF-(1113) -1.64181051E-04                        2_GWF-(699)
        318         19         12  4.82831614E-03                       2_GWF-(1113) -2.62477730E-05                        2_GWF-(849)
        319         19         13  1.00738450E-03                       2_GWF-(1024) -3.02919943E-05                        2_GWF-(949)
        320         19         14  1.40513699E-03                       2_GWF-(1114) -6.14054456E-06                       2_GWF-(1057)
        321         19         15 -1.05603312E-03                       2_GWF-(1109) -3.15278302E-05                       2_GWF-(1057)
        322         19         16  1.39746786E-03                       2_GWF-(1109)  1.80771450E-06                       2_GWF-(1056)
        323         19         17 -4.61034820E-05                       2_GWF-(1108)  7.37058802E-07                       2_GWF-(1098)
        324         20          1      -3.5293644                         2_GWF-(99)     -0.22405234                        2_GWF-(698)
        325         20          2     -0.31476187                       2_GWF-(1137)     -0.11687701                        2_GWF-(698)
        326         20          3  7.92583532E-03                       2_GWF-(1122)     -0.11732130                        2_GWF-(698)
        327         20          4       3.0820914                       2_GWF-(1131)     -0.90769296                        2_GWF-(698)
        328         20          5      -3.5580648                       2_GWF-(1131) -3.93509080E-03                        2_GWF-(699)
        329         20          6 -5.07663504E-02                       2_GWF-(1072)  1.76766527E-03                        2_GWF-(748)
        330         20          7 -1.63085307E-02                       2_GWF-(1025)  6.20476315E-04                        2_GWF-(748)
        331         20          8     -0.21809983                       2_GWF-(1073) -3.31056237E-03                        2_GWF-(698)
        332         20          9      0.17414093                       2_GWF-(1073) -1.77290047E-04                       2_GWF-(1002)
        333         20         10  8.12362170E-03                       2_GWF-(1074) -7.15836559E-05                        2_GWF-(949)
        334         20         11 -1.84125790E-03                       2_GWF-(1113) -1.23181731E-04                        2_GWF-(699)
        335         20         12  3.62143987E-03                       2_GWF-(1113) -1.96892462E-05                        2_GWF-(849)
        336         20         13  7.78865406E-04                       2_GWF-(1024) -2.28783423E-05                        2_GWF-(949)
        337         20         14  1.04533905E-03                       2_GWF-(1114) -4.59989567E-06                       2_GWF-(1057)
        338         20         15 -7.91453853E-04                       2_GWF-(1109) -2.36954960E-05                       2_GWF-(1057)
        339         21          1      -2.6470277                         2_GWF-(99)     -0.16803803                        2_GWF-(698)
        340         21          2     -0.23606487                       2_GWF-(1137) -8.76550344E-02                        2_GWF-(698)
        341         21          3  5.94956874E-03                       2_GWF-(1122) -8.79917427E-02                        2_GWF-(698)
        342         21          4       2.3091009                       2_GWF-(1131)     -0.68019621                        2_GWF-(698)
        343         21          5      -2.6660564                       2_GWF-(1131) -2.95357413E-03                        2_GWF-(699)
        344         21          6 -3.80563998E-02                       2_GWF-(1072)  1.32607178E-03                        2_GWF-(748)
        345         21          7 -1.22125204E-02                       2_GWF-(1025)  4.66067556E-04                        2_GWF-(748)
        346         21          8     -0.16244370                       2_GWF-(1073) -2.46556185E-03                        2_GWF-(698)
        347         21          9      0.12943039                       2_GWF-(1073) -1.34454527E-04                       2_GWF-(1002)
        348         21         10  6.15834535E-03                       2_GWF-(1074) -5.45388656E-05                        2_GWF-(949)
        349         21         11 -1.38045930E-03                       2_GWF-(1113) -9.47357733E-05                        2_GWF-(699)
        350         21         12  2.68873810E-03                       2_GWF-(1113) -1.48407394E-05                        2_GWF-(849)
        351         21         13 -1.97181224E-04                       2_GWF-(1024) -1.62072211E-05                       2_GWF-(1002)
        352         22          1      -1.9852723                         2_GWF-(99)     -0.12603009                        2_GWF-(698)
        353         22          2     -0.17703360                       2_GWF-(1137) -6.57411572E-02                        2_GWF-(698)
        354         22          3  4.44909359E-03                       2_GWF-(1122) -6.59886399E-02                        2_GWF-(698)
        355         22          4       1.7305600                       2_GWF-(1131)     -0.50996276                        2_GWF-(698)
        356         22          5      -1.9981590                       2_GWF-(1131) -2.21393156E-03                        2_GWF-(699)
        357         22          6 -2.85222855E-02                       2_GWF-(1072)  9.94201653E-04                        2_GWF-(748)
        358         22          7 -9.15947280E-03                       2_GWF-(1025)  3.49058614E-04                        2_GWF-(748)
        359         22          8     -0.12245197                       2_GWF-(1073) -1.86066460E-03                        2_GWF-(698)
        360         22          9  9.77429083E-02                       2_GWF-(1073) -1.00009579E-04                       2_GWF-(1002)
        361         22         10  4.58022206E-03                       2_GWF-(1074) -4.04141892E-05                        2_GWF-(949)
        362         23          1      -1.4889545                         2_GWF-(99) -9.45308633E-02                        2_GWF-(698)
        363         23          2     -0.13268012                       2_GWF-(1137) -4.93344734E-02                        2_GWF-(698)
        364         23          3  3.39439005E-03                       2_GWF-(1122) -4.95447391E-02                        2_GWF-(698)
        365         23          4       1.2956970                       2_GWF-(1131)     -0.38213489                        2_GWF-(698)
        366         23          5      -1.4964792                       2_GWF-(1131) -1.66438294E-03                        2_GWF-(699)
        367         23          6 -2.13904558E-02                       2_GWF-(1072)  7.47518305E-04                        2_GWF-(748)
        368         23          7 -6.84361485E-03                       2_GWF-(1025)  2.62655865E-04                        2_GWF-(748)
        369         23          8 -8.89152786E-02                       2_GWF-(1073) -1.34687818E-03                        2_GWF-(698)
        370         23          9  7.03375153E-02                       2_GWF-(1073) -7.68128483E-05                       2_GWF-(1002)
        371         23         10  3.53400243E-03                       2_GWF-(1074) -3.15518337E-05                        2_GWF-(949)
        372         24          1      -1.1167155                         2_GWF-(99) -7.09045637E-02                        2_GWF-(698)
        373         24          2 -9.94370397E-02                       2_GWF-(1137) -3.70230733E-02                        2_GWF-(698)
        374         24          3  2.59140822E-03                       2_GWF-(1123) -3.71993152E-02                        2_GWF-(698)
        375         24          4      0.97067479                       2_GWF-(1131)     -0.28649810                        2_GWF-(698)
        376         24          5      -1.1213275                       2_GWF-(1131) -1.25135173E-03                        2_GWF-(699)
        377         24          6 -1.60416916E-02                       2_GWF-(1072)  5.62072376E-04                        2_GWF-(748)
        378         24          7 -5.10994011E-03                       2_GWF-(1025)  1.97887626E-04                        2_GWF-(748)
        379         24          8 -6.45209934E-02                       2_GWF-(1073) -9.74615670E-04                        2_GWF-(698)
        380         24          9  5.05490245E-02                       2_GWF-(1073) -5.89971047E-05                       2_GWF-(1002)
        381         24         10  2.72678608E-03                       2_GWF-(1074) -2.46599052E-05                        2_GWF-(949)
        382         25          1     -0.83753590                         2_GWF-(99) -5.31833822E-02                        2_GWF-(698)
        383         25          2 -7.45217202E-02                       2_GWF-(1137) -2.77845372E-02                        2_GWF-(698)
        384         25          3  1.97923648E-03                       2_GWF-(1123) -2.79309145E-02                        2_GWF-(698)
        385         25          4      0.72780923                       2_GWF-(1131)     -0.21496106                        2_GWF-(698)
        386         25          5     -0.84085188                       2_GWF-(1131) -9.40902064E-04                        2_GWF-(699)
        387         25          6 -1.20303427E-02                       2_GWF-(1072)  4.22661649E-04                        2_GWF-(748)
        388         25          7 -3.81233059E-03                       2_GWF-(1025)  1.49323322E-04                        2_GWF-(748)
        389         25          8 -4.67803374E-02                       2_GWF-(1073) -7.04922919E-04                        2_GWF-(698)
        390         25          9  3.62699753E-02                       2_GWF-(1073) -4.52766679E-05                       2_GWF-(1002)
        391         25         10  2.10183393E-03                       2_GWF-(1074) -1.92647059E-05                        2_GWF-(949)
        392         26          1     -0.62815098                         2_GWF-(99) -3.98913497E-02                        2_GWF-(698)
        393         26          2 -5.58484798E-02                       2_GWF-(1137) -2.08516834E-02                        2_GWF-(698)
        394         26          3  1.51220124E-03                       2_GWF-(1123) -2.09725382E-02                        2_GWF-(698)
        395         26          4      0.54631855                       2_GWF-(1131)     -0.16144649                        2_GWF-(698)
        396         26          5     -0.63114349                       2_GWF-(1131) -7.07534103E-04                        2_GWF-(699)
        397         26          6 -9.02208271E-03                       2_GWF-(1072)  3.17854172E-04                        2_GWF-(748)
        398         26          7 -2.84151610E-03                       2_GWF-(1025)  1.12880245E-04                        2_GWF-(748)
        399         26          8 -3.38882305E-02                       2_GWF-(1073) -5.09638275E-04                        2_GWF-(698)
        400         26          9  2.59807639E-02                       2_GWF-(1073) -3.46932840E-05                       2_GWF-(1002)
        401         26         10  1.61687447E-03                       2_GWF-(1074) -1.50538367E-05                        2_GWF-(899)
        402         27          1     -0.47111224                         2_GWF-(99) -2.99214124E-02                        2_GWF-(698)
        403         27          2 -4.18539765E-02                       2_GWF-(1137) -1.56488733E-02                        2_GWF-(698)
        404         27          3  1.15609289E-03                       2_GWF-(1123) -1.57483077E-02                        2_GWF-(698)
        405         27          4      0.41063619                       2_GWF-(1131)     -0.12139871                        2_GWF-(698)
        406         27          5     -0.47428957                       2_GWF-(1131) -5.32088158E-04                        2_GWF-(699)
        407         27          6 -6.76612015E-03                       2_GWF-(1072)  2.39054938E-04                        2_GWF-(748)
        408         27          7 -2.11570652E-03                       2_GWF-(1025)  8.54952031E-05                        2_GWF-(748)
        409         28          1     -0.35331446                         2_GWF-(99) -2.24125106E-02                        2_GWF-(698)
        410         28          2 -3.17520422E-02                       2_GWF-(1137) -1.16182408E-02                        2_GWF-(698)
        411         28          3  1.15554718E-03                       2_GWF-(1126) -1.18091072E-02                        2_GWF-(698)
        412         28          4      0.34237419                       2_GWF-(1131) -9.91865068E-02                        2_GWF-(698)
        413         28          5     -0.39044022                       2_GWF-(1131) -4.03328553E-04                        2_GWF-(699)
        414         28          6 -5.12570987E-03                       2_GWF-(1072)  1.79015789E-04                        2_GWF-(748)
        415         28          7 -1.60256213E-03                       2_GWF-(1025)  6.19387252E-05                        2_GWF-(748)
        416         29          1     -0.26497253                         2_GWF-(99) -1.67892784E-02                        2_GWF-(698)
        417         29          2 -2.41277556E-02                       2_GWF-(1137) -8.61298112E-03                        2_GWF-(698)
        418         29          3  1.17724644E-03                       2_GWF-(1129) -8.86160348E-03                        2_GWF-(698)
        419         29          4      0.31978079                       2_GWF-(1131) -8.98589894E-02                        2_GWF-(698)
        420         29          5     -0.35608687                       2_GWF-(1131) -3.04608431E-04                        2_GWF-(699)
        421         29          6 -3.89713441E-03                       2_GWF-(1072)  1.34083903E-04                        2_GWF-(748)
        422         29          7 -1.20889242E-03                       2_GWF-(1025)  4.51761372E-05                        2_GWF-(898)
        423         30          1     -0.19872050                         2_GWF-(99) -1.25778431E-02                        2_GWF-(698)
        424         30          2 -1.83691325E-02                       2_GWF-(1137) -6.37345985E-03                        2_GWF-(698)
        425         30          3  1.18445348E-03                       2_GWF-(1130) -6.65333712E-03                        2_GWF-(698)
        426         30          4      0.38491970                       2_GWF-(1131)     -0.10351209                        2_GWF-(698)
        427         30          5     -0.41234538                       2_GWF-(1131) -2.29253799E-04                        2_GWF-(699)
        428         30          6 -2.97678082E-03                       2_GWF-(1072)  1.00599397E-04                        2_GWF-(748)
        429         31          1     -0.14901872                         2_GWF-(99) -9.43745888E-03                        2_GWF-(698)
        430         31          2 -1.37627489E-02                       2_GWF-(1137) -4.79404504E-03                        2_GWF-(698)
        431         31          3  9.37038012E-04                       2_GWF-(1130) -5.01677626E-03                        2_GWF-(698)
        432         31          4      0.26684166                       2_GWF-(1131) -7.17342867E-02                        2_GWF-(698)
        433         31          5     -0.28770898                       2_GWF-(1131)  1.82265268E-04                        2_GWF-(648)
        434         31          6 -2.23913426E-03                       2_GWF-(1072)  7.65923305E-05                        2_GWF-(748)
        435         32          1     -0.11174815                         2_GWF-(99) -7.08127814E-03                        2_GWF-(698)
        436         32          2 -1.03113131E-02                       2_GWF-(1137) -3.60595938E-03                        2_GWF-(698)
        437         32          3  7.45441715E-04                       2_GWF-(1130) -3.78438740E-03                        2_GWF-(698)
        438         32          4      0.18826873                       2_GWF-(1131) -5.05559137E-02                        2_GWF-(698)
        439         32          5     -0.20415371                       2_GWF-(1131)  1.49266363E-04                        2_GWF-(648)
        440         32          6 -1.68284172E-03                       2_GWF-(1072)  5.82455474E-05                        2_GWF-(748)
        441         33          1 -8.37994945E-02                         2_GWF-(99) -5.31343435E-03                        2_GWF-(698)
        442         33          2 -7.72532958E-03                       2_GWF-(1137) -2.71222443E-03                        2_GWF-(698)
        443         33          3  5.96223116E-04                       2_GWF-(1130) -2.85605179E-03                        2_GWF-(698)
        444         33          4      0.13484927                       2_GWF-(1131) -3.61426817E-02                        2_GWF-(698)
        445         33          5     -0.14694766                       2_GWF-(1131)  1.21935518E-04                        2_GWF-(648)
        446         33          6 -1.26350652E-03                       2_GWF-(1072)  4.42299777E-05                        2_GWF-(748)
        447         34          1 -6.28411712E-02                         2_GWF-(99) -3.98699087E-03                        2_GWF-(698)
        448         34          2 -5.78785442E-03                       2_GWF-(1137) -2.03990109E-03                        2_GWF-(698)
        449         34          3  4.79550096E-04                       2_GWF-(1131) -2.15650797E-03                        2_GWF-(698)
        450         35          1 -4.73262483E-02                         2_GWF-(99) -2.97330008E-03                        2_GWF-(698)
        451         35          2 -4.31448970E-03                       2_GWF-(1137) -1.51569169E-03                        2_GWF-(698)
        452         35          3 -2.93123946E-03                       2_GWF-(1134) -7.03027331E-04                        2_GWF-(698)
        453         36          1 -3.55424320E-02                         2_GWF-(99) -2.22287973E-03                        2_GWF-(698)
        454         36          2 -3.13669956E-03                       2_GWF-(1137) -1.16869733E-03                        2_GWF-(698)
        455         37          1 -2.67572673E-02                         2_GWF-(99) -1.78228478E-03                        2_GWF-(698)
        456         37          2 -2.46129149E-03                       2_GWF-(1139) -9.35668451E-04                        2_GWF-(698)
        457         38          1 -2.01329677E-02                         2_GWF-(99) -1.34859019E-03                        2_GWF-(698)
        458         38          2 -1.97914475E-03                       2_GWF-(1140) -6.75054958E-04                        2_GWF-(698)
        459         39          1 -1.51392106E-02                         2_GWF-(99) -1.00491306E-03                        2_GWF-(698)
        460         39          2 -1.57222511E-03                       2_GWF-(1141) -4.76392677E-04                        2_GWF-(698)
        461         40          1 -1.13784959E-02                         2_GWF-(99) -7.41524014E-04                        2_GWF-(698)
        462         40          2 -1.23593664E-03                       2_GWF-(1141) -3.32608880E-04                        2_GWF-(698)
        463         41          1 -8.54866806E-03                         2_GWF-(99) -5.43719807E-04                        2_GWF-(698)
 --------------------------------------------------------------------------------------------------------------------------------------


 UBDSV1 SAVING     FLOW-JA-FACE ON UNIT   1022 AT TIME STEP      1, STRESS PERIOD      1
 UBDSV06 SAVING       DATA-SPDIS IN MODEL VO               PACKAGE NPF             CONNECTED TO MODEL VO               PACKAGE NPF              ON UNIT   1022 AT TIME STEP      1, STRESS PERIOD      1
 UBDSV06 SAVING              CHD IN MODEL VO               PACKAGE VO              CONNECTED TO MODEL VO               PACKAGE CHD_0            ON UNIT   1022 AT TIME STEP      1, STRESS PERIOD      1
1
  HEAD IN LAYER   1 AT END OF TIME STEP   1 IN STRESS PERIOD    1
  ---------------------------------------------------------------------------

            1           2           3           4           5           6           7           8           9          10
           11          12          13          14          15          16          17          18          19          20
           21          22          23          24          25          26          27          28          29          30
           31          32          33          34          35          36          37          38          39          40
           41          42          43          44          45          46          47          48          49          50
           51          52          53          54          55          56          57          58          59          60
           61          62          63          64          65          66          67          68          69          70
           71          72          73          74          75          76          77          78          79          80
           81          82          83          84          85          86          87          88          89          90
           91          92          93          94          95          96          97          98          99         100
          101         102         103         104         105         106         107         108         109         110
          111         112         113         114         115         116         117         118         119         120
          121         122         123         124         125         126         127         128         129         130
          131         132         133         134         135         136         137         138         139         140
          141         142         143         144         145         146         147         148         149         150
          151         152         153         154         155         156         157         158         159         160
          161         162         163         164         165         166         167         168         169         170
          171         172         173         174         175         176         177         178         179         180
          181         182         183         184         185         186         187         188         189         190
          191         192         193         194         195         196         197         198         199         200
          201         202         203         204         205         206         207         208         209         210
          211         212         213         214         215         216         217         218         219         220
          221         222         223         224         225         226         227         228         229         230
          231         232         233         234         235         236         237         238         239         240
          241         242         243         244         245         246         247         248         249         250
          251         252         253         254         255         256         257         258         259         260
          261         262         263         264         265         266         267         268         269         270
          271         272         273         274         275         276         277         278         279         280
          281         282         283         284         285         286         287         288         289         290
          291         292         293         294         295         296         297         298         299         300
          301         302         303         304         305         306         307         308         309         310
          311         312         313         314         315         316         317         318         319         320
          321         322         323         324         325         326         327         328         329         330
          331         332         333         334         335         336         337         338         339         340
          341         342         343         344         345         346         347         348         349         350
          351         352         353         354         355         356         357         358         359         360
          361         362         363         364         365         366         367         368         369         370
          371         372         373         374         375         376         377         378         379         380
          381         382         383         384         385         386         387         388         389         390
          391         392         393         394         395         396         397         398         399         400
          401         402         403         404         405         406         407         408         409         410
          411         412         413         414         415         416         417         418         419         420
          421         422         423         424         425         426         427         428         429         430
          431         432         433         434         435         436         437         438         439         440
          441         442         443         444         445         446         447         448         449         450
          451         452         453         454         455         456         457         458         459         460
          461         462         463         464         465         466         467         468         469         470
          471         472         473         474         475         476         477         478         479         480
          481         482         483         484         485         486         487         488         489         490
          491         492         493         494         495         496         497         498         499         500
          501         502         503         504         505         506         507         508         509         510
          511         512         513         514         515         516         517         518         519         520
          521         522         523         524         525         526         527         528         529         530
          531         532         533         534         535         536         537         538         539         540
          541         542         543         544         545         546         547         548         549         550
          551         552         553         554         555         556         557         558         559         560
          561         562         563         564         565         566         567         568         569         570
          571         572         573         574         575         576         577         578         579         580
          581         582         583         584         585         586         587         588         589         590
          591         592         593         594         595         596         597         598         599         600
          601         602         603         604         605         606         607         608         609         610
[...]
       -564.0      -583.6      -603.3      -622.8      -642.3      -661.7      -681.1      -700.5      -719.8      -739.0    
       -758.2      -777.4      -796.5      -815.6      -834.7      -853.8      -872.9      -891.9      -910.9      -929.9    
       -948.9      -967.9      -986.9      -1006.      -1025.      -1044.      -1063.      -1082.      -1101.      -1120.    
       -1139.      -1159.      -1178.      -1198.      -1218.      -1238.      -1260.      -1282.      -1305.      -1327.    
       -332.8      -354.1      -375.3      -396.4      -417.4      -438.2      -459.0      -479.6      -500.1      -520.5    
       -540.8      -561.0      -581.1      -601.1      -621.1      -640.9      -660.7      -680.5      -700.2      -719.8    
       -739.4      -759.0      -778.5      -798.0      -817.4      -836.8      -856.2      -875.6      -895.0      -914.3    
       -933.7      -953.0      -972.3      -991.6      -1011.      -1030.      -1050.      -1069.      -1088.      -1108.    
       -1127.      -1147.      -1167.      -1187.      -1208.      -1229.      -1251.      -1274.      -1299.      -1323.    
       -302.7      -325.0      -347.2      -369.2      -391.0      -412.6      -434.0      -455.3      -476.4      -497.3    
       -518.1      -538.8      -559.4      -579.8      -600.2      -620.5      -640.7      -660.8      -680.9      -700.9    
       -720.9      -740.8      -760.7      -780.5      -800.3      -820.1      -839.8      -859.5      -879.2      -898.9    
       -918.6      -938.3      -957.9      -977.5      -997.2      -1017.      -1037.      -1056.      -1076.      -1096.    
       -1116.      -1136.      -1156.      -1176.      -1197.      -1219.      -1242.      -1266.      -1292.      -1319.    
       -272.5      -296.2      -319.6      -342.6      -365.3      -387.7      -409.9      -431.8      -453.4      -474.9    
       -496.2      -517.3      -538.3      -559.1      -579.9      -600.5      -621.1      -641.6      -662.0      -682.4    
       -702.7      -722.9      -743.1      -763.3      -783.4      -803.6      -823.6      -843.7      -863.7      -883.7    
       -903.7      -923.7      -943.7      -963.7      -983.6      -1004.      -1024.      -1044.      -1064.      -1084.    
       -1104.      -1124.      -1145.      -1165.      -1187.      -1209.      -1232.      -1257.      -1285.      -1314.    
       -242.4      -267.9      -292.9      -317.2      -340.9      -364.2      -387.0      -409.4      -431.6      -453.5    
       -475.1      -496.6      -517.9      -539.1      -560.2      -581.1      -602.0      -622.8      -643.5      -664.2    
       -684.8      -705.4      -725.9      -746.4      -766.9      -787.3      -807.7      -828.1      -848.5      -868.8    
       -889.1      -909.4      -929.7      -950.0      -970.3      -990.6      -1011.      -1031.      -1052.      -1072.    
       -1092.      -1113.      -1134.      -1155.      -1176.      -1198.      -1222.      -1248.      -1278.      -1310.    
       -212.2      -241.1      -268.4      -294.2      -319.0      -342.9      -366.1      -388.9      -411.3      -433.4    
       -455.3      -477.0      -498.5      -519.9      -541.2      -562.4      -583.5      -604.5      -625.5      -646.5    
       -667.4      -688.2      -709.1      -729.8      -750.6      -771.4      -792.1      -812.8      -833.5      -854.1    
       -874.8      -895.4      -916.0      -936.6      -957.2      -977.8      -998.4      -1019.      -1040.      -1060.    
       -1081.      -1102.      -1123.      -1144.      -1166.      -1188.      -1211.      -1237.      -1269.      -1305.    
       -182.1      -219.2      -249.7      -276.5      -301.4      -325.2      -348.2      -370.7      -392.9      -414.8    
       -436.6      -458.3      -479.8      -501.3      -522.7      -544.0      -565.3      -586.5      -607.8      -628.9    
       -650.1      -671.2      -692.4      -713.5      -734.6      -755.6      -776.7      -797.7      -818.7      -839.7    
       -860.7      -881.7      -902.7      -923.6      -944.6      -965.5      -986.4      -1007.      -1028.      -1049.    
       -1070.      -1091.      -1113.      -1134.      -1155.      -1177.      -1200.      -1224.      -1256.      -1301.    
       -161.8      -186.6      -211.7      -236.4      -260.8      -284.7      -308.4      -331.9      -355.3      -378.4    
       -401.5      -424.5      -447.3      -470.2      -492.9      -515.6      -538.2      -560.8      -583.4      -605.9    
       -628.4      -650.9      -673.3      -695.7      -718.1      -740.4      -762.7      -785.1      -807.3      -829.6    
       -851.9      -874.1      -896.3      -918.5      -940.8      -963.0      -985.2      -1007.      -1030.      -1052.    
       -1074.      -1097.      -1119.      -1142.      -1165.      -1189.      -1212.      -1237.      -1264.      -1293.    
       -151.3      -174.7      -197.9      -221.1      -244.4      -267.8      -291.2      -314.5      -337.9      -361.1    
       -384.3      -407.5      -430.7      -453.8      -476.8      -499.9      -522.9      -545.9      -568.8      -591.7    
       -614.7      -637.6      -660.4      -683.3      -706.2      -729.0      -751.8      -774.6      -797.5      -820.3    
       -843.1      -865.9      -888.7      -911.5      -934.4      -957.2      -980.1      -1003.      -1026.      -1049.    
       -1072.      -1095.      -1118.      -1142.      -1165.      -1189.      -1213.      -1236.      -1260.      -1283.    
       -140.8      -163.7      -186.5      -209.2      -232.0      -254.9      -277.9      -301.0      -324.1      -347.3    
       -370.4      -393.6      -416.8      -440.0      -463.2      -486.4      -509.6      -532.8      -556.0      -579.1    
       -602.3      -625.4      -648.6      -671.7      -694.9      -718.0      -741.1      -764.3      -787.4      -810.5    
       -833.6      -856.8      -879.9      -903.0      -926.2      -949.4      -972.5      -995.7      -1019.      -1042.    
       -1065.      -1089.      -1112.      -1135.      -1159.      -1182.      -1205.      -1228.      -1251.      -1272.    
       -130.3      -153.0      -175.7      -198.4      -221.1      -243.9      -266.7      -289.6      -312.5      -335.5    
       -358.6      -381.7      -404.9      -428.1      -451.3      -474.6      -497.8      -521.1      -544.4      -567.7    
       -590.9      -614.2      -637.5      -660.8      -684.1      -707.4      -730.7      -754.0      -777.3      -800.6    
       -823.8      -847.1      -870.4      -893.7      -916.9      -940.2      -963.5      -986.7      -1010.      -1033.    
       -1056.      -1080.      -1103.      -1126.      -1149.      -1172.      -1195.      -1217.      -1240.      -1262.    
       -119.8      -142.5      -165.2      -187.9      -210.6      -233.3      -256.1      -279.0      -301.9      -324.8    
       -347.9      -371.0      -394.1      -417.3      -440.5      -463.7      -487.0      -510.3      -533.6      -557.0    
       -580.3      -603.6      -627.0      -650.4      -673.7      -697.1      -720.5      -743.8      -767.2      -790.5    
       -813.9      -837.2      -860.5      -883.8      -907.1      -930.4      -953.7      -976.9      -1000.      -1023.    
       -1046.      -1070.      -1093.      -1116.      -1138.      -1161.      -1184.      -1207.      -1229.      -1251.    
       -109.3      -131.9      -154.5      -177.2      -199.9      -222.7      -245.6      -268.5      -291.4      -314.4    
       -337.5      -360.6      -383.7      -406.9      -430.1      -453.4      -476.7      -500.0      -523.3      -546.7    
       -570.0      -593.4      -616.8      -640.2      -663.5      -686.9      -710.3      -733.7      -757.1      -780.4    
       -803.8      -827.1      -850.5      -873.8      -897.0      -920.3      -943.5      -966.7      -989.9      -1013.    
       -1036.      -1059.      -1082.      -1105.      -1128.      -1150.      -1173.      -1196.      -1218.      -1241.    
       -98.78      -121.2      -143.7      -166.4      -189.1      -211.9      -234.9      -257.9      -280.9      -304.0    
       -327.2      -350.3      -373.5      -396.8      -420.0      -443.3      -466.6      -489.9      -513.2      -536.6    
       -559.9      -583.3      -606.6      -630.0      -653.3      -676.7      -700.1      -723.4      -746.8      -770.1    
       -793.5      -816.8      -840.1      -863.4      -886.7      -909.9      -933.1      -956.3      -979.4      -1003.    
       -1026.      -1048.      -1071.      -1094.      -1117.      -1140.      -1162.      -1185.      -1208.      -1230.    
       -88.29      -110.4      -132.8      -155.5      -178.3      -201.3      -224.4      -247.5      -270.7      -293.9    
       -317.1      -340.4      -363.6      -386.9      -410.2      -433.4      -456.7      -480.0      -503.2      -526.5    
       -549.8      -573.1      -596.4      -619.7      -642.9      -666.2      -689.5      -712.8      -736.1      -759.4    
       -782.7      -806.0      -829.3      -852.5      -875.8      -899.0      -922.2      -945.4      -968.6      -991.7    
       -1015.      -1038.      -1061.      -1084.      -1106.      -1129.      -1152.      -1174.      -1197.      -1220.    
       -77.79      -99.70      -122.3      -145.2      -168.4      -191.6      -214.9      -238.2      -261.5      -284.8    
       -308.0      -331.3      -354.5      -377.7      -400.8      -424.0      -447.1      -470.3      -493.4      -516.5    
       -539.7      -562.8      -585.9      -609.1      -632.2      -655.3      -678.5      -701.6      -724.8      -747.9    
       -771.1      -794.3      -817.4      -840.6      -863.8      -887.0      -910.2      -933.4      -956.6      -979.8    
       -1003.      -1026.      -1049.      -1072.      -1095.      -1118.      -1141.      -1164.      -1187.      -1209.    
       -67.29      -90.13      -113.9      -137.7      -161.3      -184.9      -208.3      -231.6      -254.8      -277.9    
       -300.9      -323.9      -346.9      -369.8      -392.6      -415.5      -438.3      -461.2      -484.0      -506.8    
       -529.6      -552.4      -575.3      -598.1      -620.9      -643.8      -666.6      -689.5      -712.4      -735.3    
       -758.2      -781.2      -804.1      -827.1      -850.1      -873.2      -896.3      -919.4      -942.5      -965.7    
       -988.9      -1012.      -1036.      -1059.      -1082.      -1106.      -1129.      -1152.      -1175.      -1199.    
       -56.80      -86.04      -112.4      -137.1      -160.9      -184.2      -207.2      -229.9      -252.5      -274.9    
       -297.3      -319.6      -341.9      -364.1      -386.4      -408.6      -430.9      -453.1      -475.3      -497.6    
       -519.9      -542.2      -564.5      -586.8      -609.1      -631.5      -653.9      -676.3      -698.7      -721.2    
       -743.7      -766.2      -788.8      -811.4      -834.1      -856.8      -879.6      -902.4      -925.3      -948.3    
       -971.4      -994.6      -1018.      -1041.      -1065.      -1089.      -1114.      -1138.      -1163.      -1188.    
       -49.14      -97.79      -124.3      -148.1      -170.8      -192.7      -214.3      -235.7      -256.9      -278.0    
       -299.0      -320.0      -341.0      -362.0      -382.9      -403.9      -424.8      -445.8      -466.8      -487.8    
       -508.8      -529.8      -550.9      -571.9      -593.0      -614.1      -635.1      -656.3      -677.4      -698.5    
       -719.7      -740.9      -762.1      -783.4      -804.7      -826.0      -847.4      -868.8      -890.4      -912.0    
       -933.8      -955.8      -978.0      -1001.      -1024.      -1047.      -1072.      -1100.      -1130.      -1168.    
       -44.34      -82.62      -113.0      -137.6      -160.5      -182.5      -204.0      -225.2      -246.1      -267.0    
       -287.7      -308.4      -329.1      -349.7      -370.4      -391.0      -411.6      -432.2      -452.9      -473.5    
       -494.2      -514.9      -535.5      -556.3      -577.0      -597.8      -618.5      -639.3      -660.2      -681.1    
       -702.0      -722.9      -743.9      -765.0      -786.1      -807.3      -828.6      -850.0      -871.6      -893.3    
       -915.2      -937.3      -959.8      -982.7      -1006.      -1030.      -1055.      -1081.      -1108.      -1137.    
       -39.53      -72.24      -101.6      -126.8      -149.8      -171.8      -193.1      -214.1      -234.8      -255.4    
       -275.9      -296.3      -316.7      -337.0      -357.3      -377.6      -397.9      -418.3      -438.6      -458.9    
       -479.3      -499.6      -520.0      -540.4      -560.8      -581.3      -601.7      -622.2      -642.8      -663.4    
       -684.0      -704.7      -725.5      -746.3      -767.2      -788.2      -809.2      -830.5      -851.8      -873.3    
       -895.0      -917.0      -939.2      -961.7      -984.6      -1008.      -1032.      -1056.      -1081.      -1107.    
       -34.72      -63.73      -91.36      -116.2      -139.2      -161.0      -182.1      -202.9      -223.4      -243.7    
       -263.9      -284.0      -304.0      -324.1      -344.1      -364.1      -384.1      -404.1      -424.1      -444.1    
       -464.1      -484.1      -504.2      -524.2      -544.3      -564.5      -584.6      -604.8      -625.0      -645.3    
       -665.6      -686.0      -706.5      -727.0      -747.6      -768.2      -789.0      -809.9      -830.9      -852.1    
       -873.4      -894.9      -916.6      -938.6      -960.8      -983.2      -1006.      -1029.      -1053.      -1076.    
       -29.91      -56.28      -82.07      -106.1      -128.7      -150.2      -171.1      -191.6      -211.8      -231.8    
       -251.7      -271.5      -291.2      -310.9      -330.6      -350.3      -370.0      -389.6      -409.3      -429.0    
       -448.7      -468.4      -488.1      -507.8      -527.6      -547.4      -567.2      -587.0      -606.9      -626.9    
       -646.8      -666.9      -687.0      -707.1      -727.4      -747.7      -768.1      -788.5      -809.1      -829.9    
       -850.7      -871.7      -892.8      -914.1      -935.6      -957.3      -979.1      -1001.      -1023.      -1046.    
       -25.10      -49.43      -73.54      -96.57      -118.5      -139.6      -160.1      -180.2      -200.1      -219.8    
       -239.3      -258.8      -278.2      -297.6      -317.0      -336.3      -355.7      -375.0      -394.3      -413.7    
       -433.0      -452.4      -471.8      -491.2      -510.6      -530.0      -549.5      -569.0      -588.5      -608.1    
       -627.7      -647.4      -667.1      -686.8      -706.7      -726.6      -746.5      -766.6      -786.7      -806.9    
       -827.3      -847.7      -868.2      -888.9      -909.7      -930.6      -951.6      -972.7      -993.9      -1015.    
       -20.30      -42.96      -65.55      -87.47      -108.6      -129.2      -149.2      -168.9      -188.4      -207.7    
       -226.9      -246.1      -265.2      -284.2      -303.2      -322.2      -341.2      -360.2      -379.2      -398.2    
       -417.2      -436.2      -455.3      -474.3      -493.4      -512.4      -531.6      -550.7      -569.8      -589.0    
       -608.3      -627.5      -646.8      -666.2      -685.6      -705.0      -724.6      -744.1      -763.8      -783.5    
       -803.3      -823.1      -843.1      -863.1      -883.2      -903.3      -923.6      -943.9      -964.3      -984.7    
       -15.49      -36.72      -57.93      -78.74      -99.05      -118.9      -138.4      -157.6      -176.7      -195.6    
       -214.5      -233.2      -252.0      -270.7      -289.3      -308.0      -326.6      -345.3      -363.9      -382.6    
       -401.2      -419.9      -438.6      -457.3      -476.0      -494.7      -513.4      -532.2      -550.9      -569.7    
       -588.6      -607.4      -626.3      -645.2      -664.2      -683.2      -702.2      -721.3      -740.4      -759.6    
       -778.9      -798.1      -817.5      -836.9      -856.3      -875.8      -895.3      -914.9      -934.6      -954.2    
       -10.68      -30.62      -50.57      -70.29      -89.70      -108.8      -127.7      -146.4      -165.0      -183.5    
       -202.0      -220.3      -238.7      -257.0      -275.3      -293.7      -312.0      -330.3      -348.6      -366.8    
       -385.1      -403.5      -421.8      -440.1      -458.4      -476.8      -495.1      -513.5      -531.9      -550.3    
       -568.7      -587.1      -605.6      -624.0      -642.5      -661.1      -679.6      -698.2      -716.8      -735.5    
       -754.2      -772.9      -791.6      -810.4      -829.2      -848.1      -866.9      -885.8      -904.7      -923.7    
       -5.872      -24.61      -43.36      -62.00      -80.50      -98.87      -117.1      -135.3      -153.4      -171.4    
       -189.4      -207.4      -225.4      -243.4      -261.3      -279.3      -297.2      -315.1      -333.1      -351.0    
       -369.0      -386.9      -404.9      -422.8      -440.8      -458.7      -476.7      -494.7      -512.7      -530.6    
       -548.6      -566.7      -584.7      -602.7      -620.8      -638.8      -656.9      -675.0      -693.1      -711.2    
       -729.3      -747.5      -765.6      -783.8      -802.0      -820.2      -838.4      -856.7      -874.9      -893.2    
       -1.064      -18.65      -36.23      -53.81      -71.40      -88.98      -106.6      -124.1      -141.7      -159.3    
       -176.9      -194.5      -212.1      -229.6      -247.2      -264.8      -282.4      -300.0      -317.6      -335.1    
       -352.7      -370.3      -387.9      -405.5      -423.1      -440.6      -458.2      -475.8      -493.4      -511.0    
       -528.6      -546.1      -563.7      -581.3      -598.9      -616.5      -634.1      -651.6      -669.2      -686.8    
       -704.4      -722.0      -739.5      -757.1      -774.7      -792.3      -809.9      -827.5      -845.0      -862.6    

 HEAD WILL BE SAVED ON UNIT 1023 AT END OF TIME STEP    1, STRESS PERIOD    1


  VOLUME BUDGET FOR ENTIRE MODEL AT END OF TIME STEP    1, STRESS PERIOD   1
  ---------------------------------------------------------------------------------------------------

     CUMULATIVE VOLUME      L**3       RATES FOR THIS TIME STEP      L**3/T          PACKAGE NAME    
     ------------------                 ------------------------                     ----------------

           IN:                                      IN:
           ---                                      ---
                 CHD =         189.9267                   CHD =         189.9267     CHD_0                            

            TOTAL IN =         189.9267              TOTAL IN =         189.9267

          OUT:                                     OUT:
          ----                                     ----
                 CHD =         189.9258                   CHD =         189.9258     CHD_0                            

           TOTAL OUT =         189.9258             TOTAL OUT =         189.9258

            IN - OUT =       8.8223E-04              IN - OUT =       8.8223E-04

 PERCENT DISCREPANCY =           0.00     PERCENT DISCREPANCY =           0.00




         TIME SUMMARY AT END OF TIME STEP    1 IN STRESS PERIOD    1
                    SECONDS     MINUTES      HOURS       DAYS        YEARS
                    -----------------------------------------------------------
   TIME STEP LENGTH  86400.      1440.0      24.000      1.0000     2.73785E-03
 STRESS PERIOD TIME  86400.      1440.0      24.000      1.0000     2.73785E-03
         TOTAL TIME  86400.      1440.0      24.000      1.0000     2.73785E-03


end timestep

